
OS:Version,
  {13647217-2723-4088-85a4-9426744973d8}, !- Handle
  2.4.0;                                  !- Version Identifier

! TrackingID:#[F6v5lyF7]
OS:Curve:Cubic,
  {cb7f1fd2-c80b-47a1-978c-08ee073cd131}, !- Handle
  Curve Cubic 1,                          !- Name
  0.5,                                    !- Coefficient1 Constant
  0.6,                                    !- Coefficient2 x
  0.7,                                    !- Coefficient3 x**2
  0.8,                                    !- Coefficient4 x**3
  0,                                      !- Minimum Value of x
  1;                                      !- Maximum Value of x

