
OS:Version,
  {4d4bd111-0e6d-48d6-bb65-7d5e09792185}, !- Handle
  2.4.0;                                  !- Version Identifier

OS:Boiler:HotWater,
  {3aaa8f1d-1a81-486b-bf89-1792dbce31f9}, !- Handle
  Boiler Hot Water 1,                     !- Name
  ,                                       !- Fuel Type
  ,                                       !- Nominal Capacity {W}
  ,                                       !- Nominal Thermal Efficiency
  ,                                       !- Efficiency Curve Temperature Evaluation Variable
  {53a14df9-73b7-4990-bf20-0e51d12e1094}, !- Normalized Boiler Efficiency Curve Name
  ,                                       !- Design Water Outlet Temperature {C}
  ,                                       !- Design Water Flow Rate {m3/s}
  ,                                       !- Minimum Part Load Ratio
  ,                                       !- Maximum Part Load Ratio
  ,                                       !- Optimum Part Load Ratio
  ,                                       !- Boiler Water Inlet Node Name
  ,                                       !- Boiler Water Outlet Node Name
  99,                                     !- Water Outlet Upper Temperature Limit {C}
  ConstantFlow,                           !- Boiler Flow Mode
  0,                                      !- Parasitic Electric Load {W}
  1;                                      !- Sizing Factor

OS:Curve:Bicubic,
  {53a14df9-73b7-4990-bf20-0e51d12e1094}, !- Handle
  Curve Bicubic 1,                        !- Name
  22.22,                                  !- Coefficient1 Constant
  0,                                      !- Coefficient2 x
  0,                                      !- Coefficient3 x**2
  0,                                      !- Coefficient4 y
  0,                                      !- Coefficient5 y**2
  0,                                      !- Coefficient6 x*y
  0,                                      !- Coefficient7 x**3
  0,                                      !- Coefficient8 y**3
  0,                                      !- Coefficient9 x**2*y
  0,                                      !- Coefficient10 x*y**2
  0,                                      !- Minimum Value of x
  1,                                      !- Maximum Value of x
  0,                                      !- Minimum Value of y
  1;                                      !- Maximum Value of y

