
OS:Version,
  {4d10e216-9b1f-460d-a6f0-ad744c2ddf22}, !- Handle
  2.4.0;                                  !- Version Identifier

OS:AirLoopHVAC,
  {a891dbbe-70f8-4de2-a50a-2abce1128cf8}, !- Handle
  Air Loop HVAC 1,                        !- Name
  ,                                       !- Controller List Name
  {a09a57fa-1832-4d80-9084-6563e2e80076}, !- Availability Schedule
  {51956b44-b59f-407e-b901-9540681c70ec}, !- Availability Manager List Name
  AutoSize,                               !- Design Supply Air Flow Rate {m3/s}
  ,                                       !- Branch List Name
  ,                                       !- Connector List Name
  {6858fc7a-af5d-42c4-9922-06dc328e39ca}, !- Supply Side Inlet Node Name
  {b010cb76-35c2-47a8-a009-8270b0acda41}, !- Demand Side Outlet Node Name
  {30a15018-3610-4a5f-8a66-133b42dfd797}, !- Demand Side Inlet Node A
  {fe5d0efc-8dae-4c26-a16e-7f9c17659ac2}, !- Supply Side Outlet Node A
  ,                                       !- Demand Side Inlet Node B
  ,                                       !- Supply Side Outlet Node B
  ,                                       !- Return Air Bypass Flow Temperature Setpoint Schedule Name
  {bbe3a22f-b5c3-41ec-ad2a-e83c1e46cc3e}, !- Demand Mixer Name
  {cc0b8df8-963b-4200-963d-289114ce2736}, !- Demand Splitter A Name
  ,                                       !- Demand Splitter B Name
  ;                                       !- Supply Splitter Name

OS:Node,
  {875d1fbb-9d8c-4d54-82e7-c55abc61fba0}, !- Handle
  Node 1,                                 !- Name
  {6858fc7a-af5d-42c4-9922-06dc328e39ca}, !- Inlet Port
  {28817f13-8fa4-45c5-a248-07aa0d84969f}; !- Outlet Port

OS:Node,
  {f95b0133-a45c-4217-85fa-9507e627d95f}, !- Handle
  Node 2,                                 !- Name
  {5bf283dd-28c7-47a9-8677-bc09c8f4f6b6}, !- Inlet Port
  {fe5d0efc-8dae-4c26-a16e-7f9c17659ac2}; !- Outlet Port

OS:Connection,
  {6858fc7a-af5d-42c4-9922-06dc328e39ca}, !- Handle
  {92408279-b8f1-48b5-8280-f68d80b9a464}, !- Name
  {a891dbbe-70f8-4de2-a50a-2abce1128cf8}, !- Source Object
  8,                                      !- Outlet Port
  {875d1fbb-9d8c-4d54-82e7-c55abc61fba0}, !- Target Object
  2;                                      !- Inlet Port

OS:Connection,
  {fe5d0efc-8dae-4c26-a16e-7f9c17659ac2}, !- Handle
  {dd0e8eaa-e016-4e9e-b90e-506e3847034f}, !- Name
  {f95b0133-a45c-4217-85fa-9507e627d95f}, !- Source Object
  3,                                      !- Outlet Port
  {a891dbbe-70f8-4de2-a50a-2abce1128cf8}, !- Target Object
  11;                                     !- Inlet Port

OS:Node,
  {8901d01d-95e4-43f7-ad83-d0803efb7f43}, !- Handle
  Node 3,                                 !- Name
  {30a15018-3610-4a5f-8a66-133b42dfd797}, !- Inlet Port
  {3f2f70e5-581d-4567-ada8-427c19bce81a}; !- Outlet Port

OS:Node,
  {cf56242c-f429-4697-941b-234dabd3f981}, !- Handle
  Node 4,                                 !- Name
  {ede38d83-3e27-4b24-94c3-42cbeb19646b}, !- Inlet Port
  {b010cb76-35c2-47a8-a009-8270b0acda41}; !- Outlet Port

OS:Node,
  {2fde6f8e-c762-4989-891d-1a912100851c}, !- Handle
  Node 5,                                 !- Name
  {32966a37-97ee-44eb-949d-0c408e36cdc2}, !- Inlet Port
  {748603ab-53ac-4a37-879d-f5646203f58e}; !- Outlet Port

OS:Connection,
  {30a15018-3610-4a5f-8a66-133b42dfd797}, !- Handle
  {d3937f9b-629e-470f-b480-149eb3739a46}, !- Name
  {a891dbbe-70f8-4de2-a50a-2abce1128cf8}, !- Source Object
  10,                                     !- Outlet Port
  {8901d01d-95e4-43f7-ad83-d0803efb7f43}, !- Target Object
  2;                                      !- Inlet Port

OS:Connection,
  {b010cb76-35c2-47a8-a009-8270b0acda41}, !- Handle
  {532b5fd0-50d8-47bb-9ee3-fab217e87057}, !- Name
  {cf56242c-f429-4697-941b-234dabd3f981}, !- Source Object
  3,                                      !- Outlet Port
  {a891dbbe-70f8-4de2-a50a-2abce1128cf8}, !- Target Object
  9;                                      !- Inlet Port

OS:AirLoopHVAC:ZoneSplitter,
  {cc0b8df8-963b-4200-963d-289114ce2736}, !- Handle
  Air Loop HVAC Zone Splitter 1,          !- Name
  {3f2f70e5-581d-4567-ada8-427c19bce81a}, !- Inlet Node Name
  {32966a37-97ee-44eb-949d-0c408e36cdc2}; !- Outlet Node Name 1

OS:AirLoopHVAC:ZoneMixer,
  {bbe3a22f-b5c3-41ec-ad2a-e83c1e46cc3e}, !- Handle
  Air Loop HVAC Zone Mixer 1,             !- Name
  {ede38d83-3e27-4b24-94c3-42cbeb19646b}, !- Outlet Node Name
  {748603ab-53ac-4a37-879d-f5646203f58e}; !- Inlet Node Name 1

OS:Connection,
  {3f2f70e5-581d-4567-ada8-427c19bce81a}, !- Handle
  {36bab044-0bb0-4e4d-84f4-9ac4141a1f08}, !- Name
  {8901d01d-95e4-43f7-ad83-d0803efb7f43}, !- Source Object
  3,                                      !- Outlet Port
  {cc0b8df8-963b-4200-963d-289114ce2736}, !- Target Object
  2;                                      !- Inlet Port

OS:Connection,
  {32966a37-97ee-44eb-949d-0c408e36cdc2}, !- Handle
  {11e30591-3e1b-475b-9fe3-3f7d37c0c660}, !- Name
  {cc0b8df8-963b-4200-963d-289114ce2736}, !- Source Object
  3,                                      !- Outlet Port
  {2fde6f8e-c762-4989-891d-1a912100851c}, !- Target Object
  2;                                      !- Inlet Port

OS:Connection,
  {748603ab-53ac-4a37-879d-f5646203f58e}, !- Handle
  {ab914a7c-1312-4ac7-83cf-b235949cab56}, !- Name
  {2fde6f8e-c762-4989-891d-1a912100851c}, !- Source Object
  3,                                      !- Outlet Port
  {bbe3a22f-b5c3-41ec-ad2a-e83c1e46cc3e}, !- Target Object
  3;                                      !- Inlet Port

OS:Connection,
  {ede38d83-3e27-4b24-94c3-42cbeb19646b}, !- Handle
  {a42021da-a67c-43ee-ac94-82b2e7cdf74f}, !- Name
  {bbe3a22f-b5c3-41ec-ad2a-e83c1e46cc3e}, !- Source Object
  2,                                      !- Outlet Port
  {cf56242c-f429-4697-941b-234dabd3f981}, !- Target Object
  2;                                      !- Inlet Port

OS:Sizing:System,
  {64d2ec9e-92c5-46f6-a8e5-a34b737027ff}, !- Handle
  {a891dbbe-70f8-4de2-a50a-2abce1128cf8}, !- AirLoop Name
  Sensible,                               !- Type of Load to Size On
  Autosize,                               !- Design Outdoor Air Flow Rate {m3/s}
  0.3,                                    !- Minimum System Air Flow Ratio
  7,                                      !- Preheat Design Temperature {C}
  0.008,                                  !- Preheat Design Humidity Ratio {kg-H2O/kg-Air}
  12.8,                                   !- Precool Design Temperature {C}
  0.008,                                  !- Precool Design Humidity Ratio {kg-H2O/kg-Air}
  12.8,                                   !- Central Cooling Design Supply Air Temperature {C}
  16.7,                                   !- Central Heating Design Supply Air Temperature {C}
  NonCoincident,                          !- Sizing Option
  Yes,                                    !- 100% Outdoor Air in Cooling
  Yes,                                    !- 100% Outdoor Air in Heating
  0.0085,                                 !- Central Cooling Design Supply Air Humidity Ratio {kg-H2O/kg-Air}
  0.008,                                  !- Central Heating Design Supply Air Humidity Ratio {kg-H2O/kg-Air}
  DesignDay,                              !- Cooling Design Air Flow Method
  0,                                      !- Cooling Design Air Flow Rate {m3/s}
  DesignDay,                              !- Heating Design Air Flow Method
  0,                                      !- Heating Design Air Flow Rate {m3/s}
  ZoneSum,                                !- System Outdoor Air Method
  1,                                      !- Zone Maximum Outdoor Air Fraction {dimensionless}
  0.0099676501,                           !- Cooling Supply Air Flow Rate Per Floor Area {m3/s-m2}
  1,                                      !- Cooling Fraction of Autosized Cooling Supply Air Flow Rate
  3.9475456e-005,                         !- Cooling Supply Air Flow Rate Per Unit Cooling Capacity {m3/s-W}
  0.0099676501,                           !- Heating Supply Air Flow Rate Per Floor Area {m3/s-m2}
  1,                                      !- Heating Fraction of Autosized Heating Supply Air Flow Rate
  1,                                      !- Heating Fraction of Autosized Cooling Supply Air Flow Rate
  3.1588213e-005,                         !- Heating Supply Air Flow Rate Per Unit Heating Capacity {m3/s-W}
  CoolingDesignCapacity,                  !- Cooling Design Capacity Method
  autosize,                               !- Cooling Design Capacity {W}
  234.7,                                  !- Cooling Design Capacity Per Floor Area {W/m2}
  1,                                      !- Fraction of Autosized Cooling Design Capacity
  HeatingDesignCapacity,                  !- Heating Design Capacity Method
  autosize,                               !- Heating Design Capacity {W}
  157,                                    !- Heating Design Capacity Per Floor Area {W/m2}
  1,                                      !- Fraction of Autosized Heating Design Capacity
  OnOff;                                  !- Central Cooling Capacity Control Method

OS:Schedule:Constant,
  {a09a57fa-1832-4d80-9084-6563e2e80076}, !- Handle
  Always On Discrete,                     !- Name
  {f8f21196-9061-4e28-8cbd-ddb1b0e796b3}, !- Schedule Type Limits Name
  1;                                      !- Value

OS:ScheduleTypeLimits,
  {f8f21196-9061-4e28-8cbd-ddb1b0e796b3}, !- Handle
  OnOff,                                  !- Name
  0,                                      !- Lower Limit Value
  1,                                      !- Upper Limit Value
  Discrete,                               !- Numeric Type
  Availability;                           !- Unit Type

OS:AvailabilityManagerAssignmentList,
  {51956b44-b59f-407e-b901-9540681c70ec}, !- Handle
  Air Loop HVAC 1 AvailabilityManagerAssignmentList; !- Name

! TrackingID:#[dhzGJI]
OS:Coil:Heating:Water,
  {ce330971-522f-466f-a4d3-99d7b379c8e4}, !- Handle
  Coil Heating Water 1,                   !- Name
  {a09a57fa-1832-4d80-9084-6563e2e80076}, !- Availability Schedule Name
  ,                                       !- U-Factor Times Area Value {W/K}
  ,                                       !- Maximum Water Flow Rate {m3/s}
  ,                                       !- Water Inlet Node Name
  ,                                       !- Water Outlet Node Name
  {28817f13-8fa4-45c5-a248-07aa0d84969f}, !- Air Inlet Node Name
  {cfe1628e-da1f-4173-917b-429b2c1131c7}, !- Air Outlet Node Name
  ,                                       !- Performance Input Method
  ,                                       !- Rated Capacity {W}
  ,                                       !- Rated Inlet Water Temperature {C}
  ,                                       !- Rated Inlet Air Temperature {C}
  ,                                       !- Rated Outlet Water Temperature {C}
  ,                                       !- Rated Outlet Air Temperature {C}
  ;                                       !- Rated Ratio for Air and Water Convection

OS:Connection,
  {28817f13-8fa4-45c5-a248-07aa0d84969f}, !- Handle
  {49e1c515-7ea0-4540-9894-e47b0d4e27ff}, !- Name
  {875d1fbb-9d8c-4d54-82e7-c55abc61fba0}, !- Source Object
  3,                                      !- Outlet Port
  {ce330971-522f-466f-a4d3-99d7b379c8e4}, !- Target Object
  7;                                      !- Inlet Port

! TrackingID:#[Yeqbdr]
OS:Fan:ConstantVolume,
  {754e8c11-8e92-40a7-93ea-54889baf50f6}, !- Handle
  Fan Constant Volume 1,                  !- Name
  {a09a57fa-1832-4d80-9084-6563e2e80076}, !- Availability Schedule Name
  ,                                       !- Fan Efficiency
  ,                                       !- Pressure Rise {Pa}
  AutoSize,                               !- Maximum Flow Rate {m3/s}
  ,                                       !- Motor Efficiency
  ,                                       !- Motor In Airstream Fraction
  {f4247b91-eef7-4126-b8c1-9302d677d2b7}, !- Air Inlet Node Name
  {5bf283dd-28c7-47a9-8677-bc09c8f4f6b6}, !- Air Outlet Node Name
  ;                                       !- End-Use Subcategory

OS:Node,
  {a7ae9241-ce33-4d16-be2d-4bebc2e4881f}, !- Handle
  Node 6,                                 !- Name
  {cfe1628e-da1f-4173-917b-429b2c1131c7}, !- Inlet Port
  {f4247b91-eef7-4126-b8c1-9302d677d2b7}; !- Outlet Port

OS:Connection,
  {cfe1628e-da1f-4173-917b-429b2c1131c7}, !- Handle
  {d2f710b7-756d-43f1-a36c-dca613ccf9e8}, !- Name
  {ce330971-522f-466f-a4d3-99d7b379c8e4}, !- Source Object
  8,                                      !- Outlet Port
  {a7ae9241-ce33-4d16-be2d-4bebc2e4881f}, !- Target Object
  2;                                      !- Inlet Port

OS:Connection,
  {f4247b91-eef7-4126-b8c1-9302d677d2b7}, !- Handle
  {c0e9b03a-2be6-4887-9e03-e46b3f16b094}, !- Name
  {a7ae9241-ce33-4d16-be2d-4bebc2e4881f}, !- Source Object
  3,                                      !- Outlet Port
  {754e8c11-8e92-40a7-93ea-54889baf50f6}, !- Target Object
  8;                                      !- Inlet Port

OS:Connection,
  {5bf283dd-28c7-47a9-8677-bc09c8f4f6b6}, !- Handle
  {4c4fa356-c834-4eee-bbaa-18b8378b46b2}, !- Name
  {754e8c11-8e92-40a7-93ea-54889baf50f6}, !- Source Object
  9,                                      !- Outlet Port
  {f95b0133-a45c-4217-85fa-9507e627d95f}, !- Target Object
  2;                                      !- Inlet Port

! TrackingID:#[6SwOuD]
OS:SetpointManager:OutdoorAirReset,
  {ea565e95-bf39-4d23-a1ed-2909f708f0b1}, !- Handle
  Setpoint Manager Outdoor Air Reset 1,   !- Name
  Temperature,                            !- Control Variable
  22,                                     !- Setpoint at Outdoor Low Temperature {C}
  10,                                     !- Outdoor Low Temperature {C}
  10,                                     !- Setpoint at Outdoor High Temperature {C}
  24,                                     !- Outdoor High Temperature {C}
  {875d1fbb-9d8c-4d54-82e7-c55abc61fba0}, !- Setpoint Node or NodeList Name
  ,                                       !- Schedule Name
  ,                                       !- Setpoint at Outdoor Low Temperature 2 {C}
  ,                                       !- Outdoor Low Temperature 2 {C}
  ,                                       !- Setpoint at Outdoor High Temperature 2 {C}
  ;                                       !- Outdoor High Temperature 2 {C}

