
OS:Version,
  {54ba59c0-da3e-4770-bbb5-6626962e14aa}, !- Handle
  2.4.0;                                  !- Version Identifier

OS:Site,
  {05434a70-62c7-4503-8c48-b541842c670a}, !- Handle
  Site 1,                                 !- Name
  ,                                       !- Latitude {deg}
  ,                                       !- Longitude {deg}
  ,                                       !- Time Zone {hr}
  ,                                       !- Elevation {m}
  ;                                       !- Terrain

OS:YearDescription,
  {eeb90ec8-73ea-4ede-a080-cfdfb7e9c631}; !- Handle

OS:ClimateZones,
  {ed5ef348-ff69-4d27-a05b-e41e88caa7cb}, !- Handle
  ,                                       !- Active Institution
  ,                                       !- Active Year
  ,                                       !- Climate Zone Institution Name 1
  ,                                       !- Climate Zone Document Name 1
  ,                                       !- Climate Zone Document Year 1
  ,                                       !- Climate Zone Value 1
  CEC,                                    !- Climate Zone Institution Name 2
  California Climate Zone Descriptions,   !- Climate Zone Document Name 2
  1995,                                   !- Climate Zone Document Year 2
  ;                                       !- Climate Zone Value 2

OS:Building,
  {b8cf50c0-3e97-426a-ba79-cd88094c77a7}, !- Handle
  Building 1,                             !- Name
  ,                                       !- Building Sector Type
  ,                                       !- North Axis {deg}
  ,                                       !- Nominal Floor to Floor Height {m}
  ,                                       !- Space Type Name
  ,                                       !- Default Construction Set Name
  ;                                       !- Default Schedule Set Name

OS:Facility,
  {1d179c43-e4f0-4e1d-8425-b684445b13ec}; !- Handle

OS:SimulationControl,
  {2f9ec432-9d60-4970-9c33-fd7721e93bb5}; !- Handle

OS:Sizing:Parameters,
  {df7e76a6-f899-4e5d-aa7f-14c9514bc240}, !- Handle
  1.25,                                   !- Heating Sizing Factor
  1.15;                                   !- Cooling Sizing Factor

OS:Timestep,
  {875f92db-3925-41cd-88f0-653912d7d558}, !- Handle
  6;                                      !- Number of Timesteps per Hour

OS:ShadowCalculation,
  {4caa93f5-5e24-45ca-ab7b-b87bb9051f83}, !- Handle
  20,                                     !- Calculation Frequency
  15000;                                  !- Maximum Figures in Shadow Overlap Calculations

OS:HeatBalanceAlgorithm,
  {643096b3-5938-4c49-b35e-ccf434c56d5f}, !- Handle
  ConductionTransferFunction,             !- Algorithm
  200;                                    !- Surface Temperature Upper Limit {C}

OS:RunPeriod,
  {7fd01dbe-5dec-410e-b008-32ffb319efa8}, !- Handle
  Run Period 1,                           !- Name
  1,                                      !- Begin Month
  1,                                      !- Begin Day of Month
  12,                                     !- End Month
  31,                                     !- End Day of Month
  ,                                       !- Use Weather File Holidays and Special Days
  ,                                       !- Use Weather File Daylight Saving Period
  ,                                       !- Apply Weekend Holiday Rule
  ,                                       !- Use Weather File Rain Indicators
  ,                                       !- Use Weather File Snow Indicators
  ;                                       !- Number of Times Runperiod to be Repeated

OS:LifeCycleCost:Parameters,
  {ebe5a6d1-7b0d-400d-976d-638e1cc9a5fe}, !- Handle
  ,                                       !- Analysis Type
  ,                                       !- Discounting Convention
  ,                                       !- Inflation Approach
  ,                                       !- Real Discount Rate
  ,                                       !- Nominal Discount Rate
  ,                                       !- Inflation
  ,                                       !- Base Date Month
  ,                                       !- Base Date Year
  ,                                       !- Service Date Month
  ,                                       !- Service Date Year
  ;                                       !- Length of Study Period in Years

OS:PlantLoop,
  {1a3ebea7-dcf6-4799-bc6a-240c49df093b}, !- Handle
  _Hot Water Loop,                        !- Name
  ,                                       !- Fluid Type
  0,                                      !- Glycol Concentration
  ,                                       !- User Defined Fluid Type
  ,                                       !- Plant Equipment Operation Heating Load
  ,                                       !- Plant Equipment Operation Cooling Load
  ,                                       !- Primary Plant Equipment Operation Scheme
  {e6665be9-6a33-4b2c-bec5-80cfb4558d7b}, !- Loop Temperature Setpoint Node Name
  ,                                       !- Maximum Loop Temperature {C}
  ,                                       !- Minimum Loop Temperature {C}
  ,                                       !- Maximum Loop Flow Rate {m3/s}
  ,                                       !- Minimum Loop Flow Rate {m3/s}
  Autocalculate,                          !- Plant Loop Volume {m3}
  {3d8c5740-528e-4779-864d-747044a44e42}, !- Plant Side Inlet Node Name
  {c7efe0c5-35dd-4ab5-9580-46da0faa9a40}, !- Plant Side Outlet Node Name
  ,                                       !- Plant Side Branch List Name
  {ae94f103-a21b-4649-9e1a-263dbd189a3a}, !- Demand Side Inlet Node Name
  {0aa6bb28-4e4a-4acf-9cab-3938aa2dcf62}, !- Demand Side Outlet Node Name
  ,                                       !- Demand Side Branch List Name
  ,                                       !- Demand Side Connector List Name
  Optimal,                                !- Load Distribution Scheme
  {270b55c2-9efb-4b67-99c2-05e60f4585b5}, !- Availability Manager List Name
  ,                                       !- Plant Loop Demand Calculation Scheme
  ,                                       !- Common Pipe Simulation
  ,                                       !- Pressure Simulation Type
  ,                                       !- Plant Equipment Operation Heating Load Schedule
  ,                                       !- Plant Equipment Operation Cooling Load Schedule
  ,                                       !- Primary Plant Equipment Operation Scheme Schedule
  ,                                       !- Component Setpoint Operation Scheme Schedule
  {86864b81-399f-4717-99dc-2f6e1c133397}, !- Demand Mixer Name
  {73fd1afa-bb94-4018-9bae-792ad84fcca0}, !- Demand Splitter Name
  {383bf01f-0ed5-4c5a-9773-703fef58e4b6}, !- Supply Mixer Name
  {ecfacbde-1988-498e-b527-110ad56e6953}; !- Supply Splitter Name

OS:Sizing:Plant,
  {0860e4f8-8b7c-4854-921b-c9bd2645cdfd}, !- Handle
  {1a3ebea7-dcf6-4799-bc6a-240c49df093b}, !- Plant or Condenser Loop Name
  Heating,                                !- Loop Type
  82,                                     !- Design Loop Exit Temperature {C}
  11,                                     !- Loop Design Temperature Difference {deltaC}
  NonCoincident,                          !- Sizing Option
  1,                                      !- Zone Timesteps in Averaging Window
  None;                                   !- Coincident Sizing Factor Mode

OS:Node,
  {122d41ce-281c-4da7-9f42-b908bbfe10c3}, !- Handle
  Node 1,                                 !- Name
  {3d8c5740-528e-4779-864d-747044a44e42}, !- Inlet Port
  {d79374a2-75d5-46ec-a53a-d0d081e19e74}; !- Outlet Port

OS:Node,
  {e6665be9-6a33-4b2c-bec5-80cfb4558d7b}, !- Handle
  Node 2,                                 !- Name
  {7433b3ec-f44e-48ce-b2ff-703d6aff5a9f}, !- Inlet Port
  {c7efe0c5-35dd-4ab5-9580-46da0faa9a40}; !- Outlet Port

OS:Node,
  {124ce6e2-e727-4da3-83a8-ec0dd8f6e174}, !- Handle
  Node 3,                                 !- Name
  {2bf6741b-f37d-4177-b412-f465fa196cbe}, !- Inlet Port
  {9d2fa1bd-4cb8-485c-bf02-bc5f5d367e48}; !- Outlet Port

OS:Connector:Mixer,
  {383bf01f-0ed5-4c5a-9773-703fef58e4b6}, !- Handle
  Connector Mixer 1,                      !- Name
  {7433b3ec-f44e-48ce-b2ff-703d6aff5a9f}, !- Outlet Branch Name
  {9d2fa1bd-4cb8-485c-bf02-bc5f5d367e48}; !- Inlet Branch Name 1

OS:Connector:Splitter,
  {ecfacbde-1988-498e-b527-110ad56e6953}, !- Handle
  Connector Splitter 1,                   !- Name
  {d79374a2-75d5-46ec-a53a-d0d081e19e74}, !- Inlet Branch Name
  {2bf6741b-f37d-4177-b412-f465fa196cbe}; !- Outlet Branch Name 1

OS:Connection,
  {3d8c5740-528e-4779-864d-747044a44e42}, !- Handle
  {3c30abc0-4698-404f-a347-97f46ca1ff48}, !- Name
  {1a3ebea7-dcf6-4799-bc6a-240c49df093b}, !- Source Object
  14,                                     !- Outlet Port
  {122d41ce-281c-4da7-9f42-b908bbfe10c3}, !- Target Object
  2;                                      !- Inlet Port

OS:Connection,
  {d79374a2-75d5-46ec-a53a-d0d081e19e74}, !- Handle
  {1ad4f352-ecda-4bfc-ac52-e410d657dac4}, !- Name
  {122d41ce-281c-4da7-9f42-b908bbfe10c3}, !- Source Object
  3,                                      !- Outlet Port
  {ecfacbde-1988-498e-b527-110ad56e6953}, !- Target Object
  2;                                      !- Inlet Port

OS:Connection,
  {2bf6741b-f37d-4177-b412-f465fa196cbe}, !- Handle
  {cb74c993-a51f-4048-95a2-bd95ba42957e}, !- Name
  {ecfacbde-1988-498e-b527-110ad56e6953}, !- Source Object
  3,                                      !- Outlet Port
  {124ce6e2-e727-4da3-83a8-ec0dd8f6e174}, !- Target Object
  2;                                      !- Inlet Port

OS:Connection,
  {9d2fa1bd-4cb8-485c-bf02-bc5f5d367e48}, !- Handle
  {a7389414-5460-4ceb-bedd-ddd744431966}, !- Name
  {124ce6e2-e727-4da3-83a8-ec0dd8f6e174}, !- Source Object
  3,                                      !- Outlet Port
  {383bf01f-0ed5-4c5a-9773-703fef58e4b6}, !- Target Object
  3;                                      !- Inlet Port

OS:Connection,
  {7433b3ec-f44e-48ce-b2ff-703d6aff5a9f}, !- Handle
  {5d0c960a-79f3-45a3-8567-295952a7b9bc}, !- Name
  {383bf01f-0ed5-4c5a-9773-703fef58e4b6}, !- Source Object
  2,                                      !- Outlet Port
  {e6665be9-6a33-4b2c-bec5-80cfb4558d7b}, !- Target Object
  2;                                      !- Inlet Port

OS:Connection,
  {c7efe0c5-35dd-4ab5-9580-46da0faa9a40}, !- Handle
  {26594beb-4212-4d1c-acc4-67cf28914e8b}, !- Name
  {e6665be9-6a33-4b2c-bec5-80cfb4558d7b}, !- Source Object
  3,                                      !- Outlet Port
  {1a3ebea7-dcf6-4799-bc6a-240c49df093b}, !- Target Object
  15;                                     !- Inlet Port

OS:Node,
  {970f7294-f0c9-4fc3-adad-8cd820f25bae}, !- Handle
  Node 4,                                 !- Name
  {ae94f103-a21b-4649-9e1a-263dbd189a3a}, !- Inlet Port
  {7b552c01-0f9a-4b4a-9174-ae559450cc16}; !- Outlet Port

OS:Node,
  {6ce3b7bc-f5db-4ee9-9c88-6c6e0012a142}, !- Handle
  Node 5,                                 !- Name
  {822bf692-2281-4459-8ff7-73338afd575d}, !- Inlet Port
  {0aa6bb28-4e4a-4acf-9cab-3938aa2dcf62}; !- Outlet Port

OS:Node,
  {2181034d-7112-4efa-8c9d-fe5d8522468b}, !- Handle
  Node 6,                                 !- Name
  {a6f77ebd-1945-4c68-9c2b-8f9782656bab}, !- Inlet Port
  {06699026-df1e-489c-9017-69783727c015}; !- Outlet Port

OS:Connector:Mixer,
  {86864b81-399f-4717-99dc-2f6e1c133397}, !- Handle
  Connector Mixer 2,                      !- Name
  {822bf692-2281-4459-8ff7-73338afd575d}, !- Outlet Branch Name
  {06699026-df1e-489c-9017-69783727c015}; !- Inlet Branch Name 1

OS:Connector:Splitter,
  {73fd1afa-bb94-4018-9bae-792ad84fcca0}, !- Handle
  Connector Splitter 2,                   !- Name
  {7b552c01-0f9a-4b4a-9174-ae559450cc16}, !- Inlet Branch Name
  {a6f77ebd-1945-4c68-9c2b-8f9782656bab}; !- Outlet Branch Name 1

OS:Connection,
  {ae94f103-a21b-4649-9e1a-263dbd189a3a}, !- Handle
  {e2963c20-58a7-44ea-a998-e2234cbd54a3}, !- Name
  {1a3ebea7-dcf6-4799-bc6a-240c49df093b}, !- Source Object
  17,                                     !- Outlet Port
  {970f7294-f0c9-4fc3-adad-8cd820f25bae}, !- Target Object
  2;                                      !- Inlet Port

OS:Connection,
  {7b552c01-0f9a-4b4a-9174-ae559450cc16}, !- Handle
  {25824d52-bfe0-495f-9207-4b97dd72fced}, !- Name
  {970f7294-f0c9-4fc3-adad-8cd820f25bae}, !- Source Object
  3,                                      !- Outlet Port
  {73fd1afa-bb94-4018-9bae-792ad84fcca0}, !- Target Object
  2;                                      !- Inlet Port

OS:Connection,
  {a6f77ebd-1945-4c68-9c2b-8f9782656bab}, !- Handle
  {abd76ae8-826e-4056-a482-ac892ef45869}, !- Name
  {73fd1afa-bb94-4018-9bae-792ad84fcca0}, !- Source Object
  3,                                      !- Outlet Port
  {2181034d-7112-4efa-8c9d-fe5d8522468b}, !- Target Object
  2;                                      !- Inlet Port

OS:Connection,
  {06699026-df1e-489c-9017-69783727c015}, !- Handle
  {5b3f29e0-231b-444d-8f68-40c3f89f5779}, !- Name
  {2181034d-7112-4efa-8c9d-fe5d8522468b}, !- Source Object
  3,                                      !- Outlet Port
  {86864b81-399f-4717-99dc-2f6e1c133397}, !- Target Object
  3;                                      !- Inlet Port

OS:Connection,
  {822bf692-2281-4459-8ff7-73338afd575d}, !- Handle
  {45ed3a7e-9bec-4a6a-9c4f-3b598cb3d2bf}, !- Name
  {86864b81-399f-4717-99dc-2f6e1c133397}, !- Source Object
  2,                                      !- Outlet Port
  {6ce3b7bc-f5db-4ee9-9c88-6c6e0012a142}, !- Target Object
  2;                                      !- Inlet Port

OS:Connection,
  {0aa6bb28-4e4a-4acf-9cab-3938aa2dcf62}, !- Handle
  {017d2ec4-3e57-45b7-8030-c77598140955}, !- Name
  {6ce3b7bc-f5db-4ee9-9c88-6c6e0012a142}, !- Source Object
  3,                                      !- Outlet Port
  {1a3ebea7-dcf6-4799-bc6a-240c49df093b}, !- Target Object
  18;                                     !- Inlet Port

OS:AvailabilityManagerAssignmentList,
  {270b55c2-9efb-4b67-99c2-05e60f4585b5}, !- Handle
  Plant Loop 1 AvailabilityManagerAssignmentList; !- Name

OS:Sizing:Plant,
  {a70363c4-7479-45fb-a83e-d47e35dbe788}, !- Handle
  {1a3ebea7-dcf6-4799-bc6a-240c49df093b}, !- Plant or Condenser Loop Name
  Heating,                                !- Loop Type
  71.1111111111111,                       !- Design Loop Exit Temperature {C}
  16.6666666666667,                       !- Loop Design Temperature Difference {deltaC}
  NonCoincident,                          !- Sizing Option
  1,                                      !- Zone Timesteps in Averaging Window
  None;                                   !- Coincident Sizing Factor Mode

