
OS:Version,
  {87ccd99b-7f33-4338-bde7-8cf467e3b8d6}, !- Handle
  2.4.0;                                  !- Version Identifier

! TrackingID:#[P6UPNs]
OS:AirLoopHVAC,
  {664e42fd-42ac-42c7-9050-934c680daffc}, !- Handle
  Air Loop HVAC 1,                        !- Name
  ,                                       !- Controller List Name
  {b69f4bd5-fed3-4890-8a77-0a22fa15afd2}, !- Availability Schedule
  {3cfe7946-f4dc-4618-beae-5ae8b5941bc0}, !- Availability Manager List Name
  AutoSize,                               !- Design Supply Air Flow Rate {m3/s}
  ,                                       !- Branch List Name
  ,                                       !- Connector List Name
  {97e6573b-a982-4ee4-bd9f-87d47b3881a9}, !- Supply Side Inlet Node Name
  {dd9ae639-c173-4d30-bc6e-628ec5aba9ce}, !- Demand Side Outlet Node Name
  {9ab1caf3-4d32-4db4-a186-5fc7e3cfc1a5}, !- Demand Side Inlet Node A
  {e78e2f81-df03-45c4-8110-515b10b565cc}, !- Supply Side Outlet Node A
  ,                                       !- Demand Side Inlet Node B
  ,                                       !- Supply Side Outlet Node B
  ,                                       !- Return Air Bypass Flow Temperature Setpoint Schedule Name
  {aa3f8807-a84a-44be-bb0b-a5de4bbd806b}, !- Demand Mixer Name
  {99906c13-ec1e-4ac1-9fc1-2f4ba11322c5}, !- Demand Splitter A Name
  ,                                       !- Demand Splitter B Name
  ;                                       !- Supply Splitter Name

OS:Node,
  {b3e23e57-a283-47b4-b409-ae8d77be6e5c}, !- Handle
  Node 1,                                 !- Name
  {97e6573b-a982-4ee4-bd9f-87d47b3881a9}, !- Inlet Port
  {a622df4d-7cda-481a-a1ba-06e3aec3665c}; !- Outlet Port

OS:Node,
  {ad702552-6b67-4bf7-9d20-7019865e211e}, !- Handle
  Node 2,                                 !- Name
  {d2be8a59-06c9-4972-a45b-5ce3adeaaa7a}, !- Inlet Port
  {e78e2f81-df03-45c4-8110-515b10b565cc}; !- Outlet Port

OS:Connection,
  {97e6573b-a982-4ee4-bd9f-87d47b3881a9}, !- Handle
  {ba784138-927b-4e82-9aeb-619db88b9452}, !- Name
  {664e42fd-42ac-42c7-9050-934c680daffc}, !- Source Object
  8,                                      !- Outlet Port
  {b3e23e57-a283-47b4-b409-ae8d77be6e5c}, !- Target Object
  2;                                      !- Inlet Port

OS:Connection,
  {e78e2f81-df03-45c4-8110-515b10b565cc}, !- Handle
  {0c2acc57-de0c-41e0-8ea4-b0fb28ea098f}, !- Name
  {ad702552-6b67-4bf7-9d20-7019865e211e}, !- Source Object
  3,                                      !- Outlet Port
  {664e42fd-42ac-42c7-9050-934c680daffc}, !- Target Object
  11;                                     !- Inlet Port

OS:Node,
  {d422e4cb-68c3-4252-ad92-0df3aaedd310}, !- Handle
  Node 3,                                 !- Name
  {9ab1caf3-4d32-4db4-a186-5fc7e3cfc1a5}, !- Inlet Port
  {fd636d87-3a42-4e04-bf4c-f3508035cc3e}; !- Outlet Port

OS:Node,
  {dec58fa9-0f68-4331-95d8-4d8bfe42c9fe}, !- Handle
  Node 4,                                 !- Name
  {7217e0ef-4cf1-4c0b-9464-63db530fb13c}, !- Inlet Port
  {dd9ae639-c173-4d30-bc6e-628ec5aba9ce}; !- Outlet Port

OS:Node,
  {b50ca477-0bc8-44b6-8974-4ba80877f0b2}, !- Handle
  Node 5,                                 !- Name
  {e9911b25-8da1-4753-837c-01d37232e78e}, !- Inlet Port
  {16126921-7a73-4a5c-b8c2-60157c4821f7}; !- Outlet Port

OS:Connection,
  {9ab1caf3-4d32-4db4-a186-5fc7e3cfc1a5}, !- Handle
  {846ee3d3-d4d0-4a6b-8071-2e6e6f7ef026}, !- Name
  {664e42fd-42ac-42c7-9050-934c680daffc}, !- Source Object
  10,                                     !- Outlet Port
  {d422e4cb-68c3-4252-ad92-0df3aaedd310}, !- Target Object
  2;                                      !- Inlet Port

OS:Connection,
  {dd9ae639-c173-4d30-bc6e-628ec5aba9ce}, !- Handle
  {31511dab-07ce-4f87-96de-74252934e99d}, !- Name
  {dec58fa9-0f68-4331-95d8-4d8bfe42c9fe}, !- Source Object
  3,                                      !- Outlet Port
  {664e42fd-42ac-42c7-9050-934c680daffc}, !- Target Object
  9;                                      !- Inlet Port

OS:AirLoopHVAC:ZoneSplitter,
  {99906c13-ec1e-4ac1-9fc1-2f4ba11322c5}, !- Handle
  Air Loop HVAC Zone Splitter 1,          !- Name
  {fd636d87-3a42-4e04-bf4c-f3508035cc3e}, !- Inlet Node Name
  {e9911b25-8da1-4753-837c-01d37232e78e}; !- Outlet Node Name 1

OS:AirLoopHVAC:ZoneMixer,
  {aa3f8807-a84a-44be-bb0b-a5de4bbd806b}, !- Handle
  Air Loop HVAC Zone Mixer 1,             !- Name
  {7217e0ef-4cf1-4c0b-9464-63db530fb13c}, !- Outlet Node Name
  {16126921-7a73-4a5c-b8c2-60157c4821f7}; !- Inlet Node Name 1

OS:Connection,
  {fd636d87-3a42-4e04-bf4c-f3508035cc3e}, !- Handle
  {9807b56b-1faa-4cda-8c8e-47fb4e52c1d2}, !- Name
  {d422e4cb-68c3-4252-ad92-0df3aaedd310}, !- Source Object
  3,                                      !- Outlet Port
  {99906c13-ec1e-4ac1-9fc1-2f4ba11322c5}, !- Target Object
  2;                                      !- Inlet Port

OS:Connection,
  {e9911b25-8da1-4753-837c-01d37232e78e}, !- Handle
  {250582af-dfe5-4804-940f-a7ec68fd21f0}, !- Name
  {99906c13-ec1e-4ac1-9fc1-2f4ba11322c5}, !- Source Object
  3,                                      !- Outlet Port
  {b50ca477-0bc8-44b6-8974-4ba80877f0b2}, !- Target Object
  2;                                      !- Inlet Port

OS:Connection,
  {16126921-7a73-4a5c-b8c2-60157c4821f7}, !- Handle
  {6deb2d67-8b19-4dc8-8cd4-76e230dc9a6d}, !- Name
  {b50ca477-0bc8-44b6-8974-4ba80877f0b2}, !- Source Object
  3,                                      !- Outlet Port
  {aa3f8807-a84a-44be-bb0b-a5de4bbd806b}, !- Target Object
  3;                                      !- Inlet Port

OS:Connection,
  {7217e0ef-4cf1-4c0b-9464-63db530fb13c}, !- Handle
  {7e64f9f3-12b1-4538-a397-364cd7693e8a}, !- Name
  {aa3f8807-a84a-44be-bb0b-a5de4bbd806b}, !- Source Object
  2,                                      !- Outlet Port
  {dec58fa9-0f68-4331-95d8-4d8bfe42c9fe}, !- Target Object
  2;                                      !- Inlet Port

OS:Sizing:System,
  {e09d621a-9145-4a4c-a79e-c9f57a7af15d}, !- Handle
  {664e42fd-42ac-42c7-9050-934c680daffc}, !- AirLoop Name
  Sensible,                               !- Type of Load to Size On
  Autosize,                               !- Design Outdoor Air Flow Rate {m3/s}
  0.3,                                    !- Minimum System Air Flow Ratio
  7,                                      !- Preheat Design Temperature {C}
  0.008,                                  !- Preheat Design Humidity Ratio {kg-H2O/kg-Air}
  12.8,                                   !- Precool Design Temperature {C}
  0.008,                                  !- Precool Design Humidity Ratio {kg-H2O/kg-Air}
  12.8,                                   !- Central Cooling Design Supply Air Temperature {C}
  16.7,                                   !- Central Heating Design Supply Air Temperature {C}
  NonCoincident,                          !- Sizing Option
  Yes,                                    !- 100% Outdoor Air in Cooling
  Yes,                                    !- 100% Outdoor Air in Heating
  0.0085,                                 !- Central Cooling Design Supply Air Humidity Ratio {kg-H2O/kg-Air}
  0.008,                                  !- Central Heating Design Supply Air Humidity Ratio {kg-H2O/kg-Air}
  DesignDay,                              !- Cooling Design Air Flow Method
  0,                                      !- Cooling Design Air Flow Rate {m3/s}
  DesignDay,                              !- Heating Design Air Flow Method
  0,                                      !- Heating Design Air Flow Rate {m3/s}
  ZoneSum,                                !- System Outdoor Air Method
  1,                                      !- Zone Maximum Outdoor Air Fraction {dimensionless}
  0.0099676501,                           !- Cooling Supply Air Flow Rate Per Floor Area {m3/s-m2}
  1,                                      !- Cooling Fraction of Autosized Cooling Supply Air Flow Rate
  3.9475456e-005,                         !- Cooling Supply Air Flow Rate Per Unit Cooling Capacity {m3/s-W}
  0.0099676501,                           !- Heating Supply Air Flow Rate Per Floor Area {m3/s-m2}
  1,                                      !- Heating Fraction of Autosized Heating Supply Air Flow Rate
  1,                                      !- Heating Fraction of Autosized Cooling Supply Air Flow Rate
  3.1588213e-005,                         !- Heating Supply Air Flow Rate Per Unit Heating Capacity {m3/s-W}
  CoolingDesignCapacity,                  !- Cooling Design Capacity Method
  autosize,                               !- Cooling Design Capacity {W}
  234.7,                                  !- Cooling Design Capacity Per Floor Area {W/m2}
  1,                                      !- Fraction of Autosized Cooling Design Capacity
  HeatingDesignCapacity,                  !- Heating Design Capacity Method
  autosize,                               !- Heating Design Capacity {W}
  157,                                    !- Heating Design Capacity Per Floor Area {W/m2}
  1,                                      !- Fraction of Autosized Heating Design Capacity
  OnOff;                                  !- Central Cooling Capacity Control Method

OS:Schedule:Constant,
  {b69f4bd5-fed3-4890-8a77-0a22fa15afd2}, !- Handle
  Always On Discrete,                     !- Name
  {101e6d64-2fec-49ae-9540-87f4ae41c818}, !- Schedule Type Limits Name
  1;                                      !- Value

OS:ScheduleTypeLimits,
  {101e6d64-2fec-49ae-9540-87f4ae41c818}, !- Handle
  OnOff,                                  !- Name
  0,                                      !- Lower Limit Value
  1,                                      !- Upper Limit Value
  Discrete,                               !- Numeric Type
  Availability;                           !- Unit Type

OS:AvailabilityManagerAssignmentList,
  {3cfe7946-f4dc-4618-beae-5ae8b5941bc0}, !- Handle
  Air Loop HVAC 1 AvailabilityManagerAssignmentList; !- Name

! TrackingID:#[evdrgB]
OS:Coil:Heating:Water,
  {a2ead5fe-7a51-4994-90da-dc2251cfc808}, !- Handle
  Coil Heating Water 1,                   !- Name
  {b69f4bd5-fed3-4890-8a77-0a22fa15afd2}, !- Availability Schedule Name
  ,                                       !- U-Factor Times Area Value {W/K}
  ,                                       !- Maximum Water Flow Rate {m3/s}
  ,                                       !- Water Inlet Node Name
  ,                                       !- Water Outlet Node Name
  {a622df4d-7cda-481a-a1ba-06e3aec3665c}, !- Air Inlet Node Name
  {401c722d-aa3e-4669-8251-f386d9d3fc66}, !- Air Outlet Node Name
  ,                                       !- Performance Input Method
  ,                                       !- Rated Capacity {W}
  ,                                       !- Rated Inlet Water Temperature {C}
  ,                                       !- Rated Inlet Air Temperature {C}
  ,                                       !- Rated Outlet Water Temperature {C}
  ,                                       !- Rated Outlet Air Temperature {C}
  ;                                       !- Rated Ratio for Air and Water Convection

OS:Connection,
  {a622df4d-7cda-481a-a1ba-06e3aec3665c}, !- Handle
  {69b4d3b3-f66e-4aa8-9e20-7a281bc8b0b1}, !- Name
  {b3e23e57-a283-47b4-b409-ae8d77be6e5c}, !- Source Object
  3,                                      !- Outlet Port
  {a2ead5fe-7a51-4994-90da-dc2251cfc808}, !- Target Object
  7;                                      !- Inlet Port

! TrackingID:#[oq5gui]
OS:Fan:ConstantVolume,
  {8d7784e2-a879-4f53-9fce-62da8e28c7fb}, !- Handle
  Fan Constant Volume 1,                  !- Name
  {b69f4bd5-fed3-4890-8a77-0a22fa15afd2}, !- Availability Schedule Name
  ,                                       !- Fan Efficiency
  ,                                       !- Pressure Rise {Pa}
  AutoSize,                               !- Maximum Flow Rate {m3/s}
  ,                                       !- Motor Efficiency
  ,                                       !- Motor In Airstream Fraction
  {3dc3cdf2-5f6f-4779-9bc8-dc08650e76f9}, !- Air Inlet Node Name
  {d2be8a59-06c9-4972-a45b-5ce3adeaaa7a}, !- Air Outlet Node Name
  ;                                       !- End-Use Subcategory

OS:Node,
  {86d3baaa-8eed-4804-a919-f6e8833ca853}, !- Handle
  Node 6,                                 !- Name
  {401c722d-aa3e-4669-8251-f386d9d3fc66}, !- Inlet Port
  {3dc3cdf2-5f6f-4779-9bc8-dc08650e76f9}; !- Outlet Port

OS:Connection,
  {401c722d-aa3e-4669-8251-f386d9d3fc66}, !- Handle
  {dba44864-660f-4184-a0e7-b52b7e76260b}, !- Name
  {a2ead5fe-7a51-4994-90da-dc2251cfc808}, !- Source Object
  8,                                      !- Outlet Port
  {86d3baaa-8eed-4804-a919-f6e8833ca853}, !- Target Object
  2;                                      !- Inlet Port

OS:Connection,
  {3dc3cdf2-5f6f-4779-9bc8-dc08650e76f9}, !- Handle
  {c50cfb66-952a-4e09-b0a0-45a4602438c6}, !- Name
  {86d3baaa-8eed-4804-a919-f6e8833ca853}, !- Source Object
  3,                                      !- Outlet Port
  {8d7784e2-a879-4f53-9fce-62da8e28c7fb}, !- Target Object
  8;                                      !- Inlet Port

OS:Connection,
  {d2be8a59-06c9-4972-a45b-5ce3adeaaa7a}, !- Handle
  {dea26ac8-06b9-418d-9367-e1d7325ccfb1}, !- Name
  {8d7784e2-a879-4f53-9fce-62da8e28c7fb}, !- Source Object
  9,                                      !- Outlet Port
  {ad702552-6b67-4bf7-9d20-7019865e211e}, !- Target Object
  2;                                      !- Inlet Port

! TrackingID:#[GwB2S8]
OS:SetpointManager:OutdoorAirReset,
  {b0d82f15-0b52-4090-a50d-cbb059506cdf}, !- Handle
  Setpoint Manager Outdoor Air Reset 1,   !- Name
  Temperature,                            !- Control Variable
  22,                                     !- Setpoint at Outdoor Low Temperature {C}
  10,                                     !- Outdoor Low Temperature {C}
  10,                                     !- Setpoint at Outdoor High Temperature {C}
  24,                                     !- Outdoor High Temperature {C}
  {b3e23e57-a283-47b4-b409-ae8d77be6e5c}, !- Setpoint Node or NodeList Name
  ,                                       !- Schedule Name
  ,                                       !- Setpoint at Outdoor Low Temperature 2 {C}
  ,                                       !- Outdoor Low Temperature 2 {C}
  ,                                       !- Setpoint at Outdoor High Temperature 2 {C}
  ;                                       !- Outdoor High Temperature 2 {C}

