
OS:Version,
  {3aa0c10a-3b6b-43e1-8ea9-a977dffabd77}, !- Handle
  2.4.0;                                  !- Version Identifier

OS:AirLoopHVAC,
  {a284393b-512a-4ef4-94c0-f718c61cf15d}, !- Handle
  Air Loop HVAC 1,                        !- Name
  ,                                       !- Controller List Name
  {4fcfc1e1-36c5-4de3-bf28-2ea2fa388b57}, !- Availability Schedule
  {cba1e159-38fe-4b8a-9b1d-31fbb7fa984a}, !- Availability Manager List Name
  AutoSize,                               !- Design Supply Air Flow Rate {m3/s}
  ,                                       !- Branch List Name
  ,                                       !- Connector List Name
  {92d9a767-96ad-45c9-9282-4a910cfee413}, !- Supply Side Inlet Node Name
  {c3a4053f-66d7-41eb-8171-daed8632c24c}, !- Demand Side Outlet Node Name
  {d7b35970-4320-4c4b-8e53-2497d8eda2f4}, !- Demand Side Inlet Node A
  {9f8351e5-c70a-44d0-91e6-e4edbddb6793}, !- Supply Side Outlet Node A
  ,                                       !- Demand Side Inlet Node B
  ,                                       !- Supply Side Outlet Node B
  ,                                       !- Return Air Bypass Flow Temperature Setpoint Schedule Name
  {6393de16-10a4-44ed-87a5-0077f8ea55ef}, !- Demand Mixer Name
  {975754e7-b617-466e-83aa-159015cfc3c4}, !- Demand Splitter A Name
  ,                                       !- Demand Splitter B Name
  ;                                       !- Supply Splitter Name

OS:Node,
  {7fed8930-7f3c-411b-a1ef-7dd716418bf1}, !- Handle
  Node 1,                                 !- Name
  {92d9a767-96ad-45c9-9282-4a910cfee413}, !- Inlet Port
  {e271be66-9802-4085-a5a7-c412aa85a43a}; !- Outlet Port

OS:Node,
  {b4317310-7bca-459f-9b52-f5ef486b2f5f}, !- Handle
  Node 2,                                 !- Name
  {e271be66-9802-4085-a5a7-c412aa85a43a}, !- Inlet Port
  {9f8351e5-c70a-44d0-91e6-e4edbddb6793}; !- Outlet Port

OS:Connection,
  {92d9a767-96ad-45c9-9282-4a910cfee413}, !- Handle
  {ebc4be9a-885b-4bd8-8797-27afee6575c6}, !- Name
  {a284393b-512a-4ef4-94c0-f718c61cf15d}, !- Source Object
  8,                                      !- Outlet Port
  {7fed8930-7f3c-411b-a1ef-7dd716418bf1}, !- Target Object
  2;                                      !- Inlet Port

OS:Connection,
  {e271be66-9802-4085-a5a7-c412aa85a43a}, !- Handle
  {7beabcf6-c591-401b-8f75-4382143a22d9}, !- Name
  {7fed8930-7f3c-411b-a1ef-7dd716418bf1}, !- Source Object
  3,                                      !- Outlet Port
  {b4317310-7bca-459f-9b52-f5ef486b2f5f}, !- Target Object
  2;                                      !- Inlet Port

OS:Connection,
  {9f8351e5-c70a-44d0-91e6-e4edbddb6793}, !- Handle
  {2adae7fe-4881-416f-993d-e67e8ca447d4}, !- Name
  {b4317310-7bca-459f-9b52-f5ef486b2f5f}, !- Source Object
  3,                                      !- Outlet Port
  {a284393b-512a-4ef4-94c0-f718c61cf15d}, !- Target Object
  11;                                     !- Inlet Port

OS:Node,
  {0c6f7a29-e1cd-4db4-af0f-9d7ef4628979}, !- Handle
  Node 3,                                 !- Name
  {d7b35970-4320-4c4b-8e53-2497d8eda2f4}, !- Inlet Port
  {caef1f6e-5a82-4331-8d29-fc03e7f03f35}; !- Outlet Port

OS:Node,
  {4e02262b-0360-42f4-b2c4-491f2921f8f0}, !- Handle
  Node 4,                                 !- Name
  {37fdb58f-243b-4537-a161-23e27ea437fa}, !- Inlet Port
  {c3a4053f-66d7-41eb-8171-daed8632c24c}; !- Outlet Port

OS:Node,
  {36493b9d-8924-41e5-9c6f-9f13ea96f4d5}, !- Handle
  Node 5,                                 !- Name
  {602a0ca6-7890-4c14-acfd-600922dbf9dc}, !- Inlet Port
  {1cb11929-c03b-4db9-acd3-0028935bb150}; !- Outlet Port

OS:Connection,
  {d7b35970-4320-4c4b-8e53-2497d8eda2f4}, !- Handle
  {37540983-7af3-4c7e-9b87-c8dbbd8d27ce}, !- Name
  {a284393b-512a-4ef4-94c0-f718c61cf15d}, !- Source Object
  10,                                     !- Outlet Port
  {0c6f7a29-e1cd-4db4-af0f-9d7ef4628979}, !- Target Object
  2;                                      !- Inlet Port

OS:Connection,
  {c3a4053f-66d7-41eb-8171-daed8632c24c}, !- Handle
  {8703e2d8-b750-488e-9c79-f68889612867}, !- Name
  {4e02262b-0360-42f4-b2c4-491f2921f8f0}, !- Source Object
  3,                                      !- Outlet Port
  {a284393b-512a-4ef4-94c0-f718c61cf15d}, !- Target Object
  9;                                      !- Inlet Port

OS:AirLoopHVAC:ZoneSplitter,
  {975754e7-b617-466e-83aa-159015cfc3c4}, !- Handle
  Air Loop HVAC Zone Splitter 1,          !- Name
  {caef1f6e-5a82-4331-8d29-fc03e7f03f35}, !- Inlet Node Name
  {602a0ca6-7890-4c14-acfd-600922dbf9dc}; !- Outlet Node Name 1

OS:AirLoopHVAC:ZoneMixer,
  {6393de16-10a4-44ed-87a5-0077f8ea55ef}, !- Handle
  Air Loop HVAC Zone Mixer 1,             !- Name
  {37fdb58f-243b-4537-a161-23e27ea437fa}, !- Outlet Node Name
  {1272bbe0-6d35-451d-a498-bf296d7fc6fa}; !- Inlet Node Name 1

OS:Connection,
  {caef1f6e-5a82-4331-8d29-fc03e7f03f35}, !- Handle
  {c1c84eee-bdd6-477e-a08c-00fb753ffa74}, !- Name
  {0c6f7a29-e1cd-4db4-af0f-9d7ef4628979}, !- Source Object
  3,                                      !- Outlet Port
  {975754e7-b617-466e-83aa-159015cfc3c4}, !- Target Object
  2;                                      !- Inlet Port

OS:Connection,
  {602a0ca6-7890-4c14-acfd-600922dbf9dc}, !- Handle
  {352e2207-0c0f-4fec-a955-312146b746ad}, !- Name
  {975754e7-b617-466e-83aa-159015cfc3c4}, !- Source Object
  3,                                      !- Outlet Port
  {36493b9d-8924-41e5-9c6f-9f13ea96f4d5}, !- Target Object
  2;                                      !- Inlet Port

OS:Connection,
  {37fdb58f-243b-4537-a161-23e27ea437fa}, !- Handle
  {b0751a7a-d7a6-46d4-ae87-67cedc4b5c33}, !- Name
  {6393de16-10a4-44ed-87a5-0077f8ea55ef}, !- Source Object
  2,                                      !- Outlet Port
  {4e02262b-0360-42f4-b2c4-491f2921f8f0}, !- Target Object
  2;                                      !- Inlet Port

OS:Sizing:System,
  {899babb3-8108-40e4-a46f-40d0bd838878}, !- Handle
  {a284393b-512a-4ef4-94c0-f718c61cf15d}, !- AirLoop Name
  Sensible,                               !- Type of Load to Size On
  Autosize,                               !- Design Outdoor Air Flow Rate {m3/s}
  0.3,                                    !- Minimum System Air Flow Ratio
  7,                                      !- Preheat Design Temperature {C}
  0.008,                                  !- Preheat Design Humidity Ratio {kg-H2O/kg-Air}
  12.8,                                   !- Precool Design Temperature {C}
  0.008,                                  !- Precool Design Humidity Ratio {kg-H2O/kg-Air}
  12.8,                                   !- Central Cooling Design Supply Air Temperature {C}
  16.7,                                   !- Central Heating Design Supply Air Temperature {C}
  NonCoincident,                          !- Sizing Option
  Yes,                                    !- 100% Outdoor Air in Cooling
  Yes,                                    !- 100% Outdoor Air in Heating
  0.0085,                                 !- Central Cooling Design Supply Air Humidity Ratio {kg-H2O/kg-Air}
  0.008,                                  !- Central Heating Design Supply Air Humidity Ratio {kg-H2O/kg-Air}
  DesignDay,                              !- Cooling Design Air Flow Method
  0,                                      !- Cooling Design Air Flow Rate {m3/s}
  DesignDay,                              !- Heating Design Air Flow Method
  0,                                      !- Heating Design Air Flow Rate {m3/s}
  ZoneSum,                                !- System Outdoor Air Method
  1,                                      !- Zone Maximum Outdoor Air Fraction {dimensionless}
  0.0099676501,                           !- Cooling Supply Air Flow Rate Per Floor Area {m3/s-m2}
  1,                                      !- Cooling Fraction of Autosized Cooling Supply Air Flow Rate
  3.9475456e-005,                         !- Cooling Supply Air Flow Rate Per Unit Cooling Capacity {m3/s-W}
  0.0099676501,                           !- Heating Supply Air Flow Rate Per Floor Area {m3/s-m2}
  1,                                      !- Heating Fraction of Autosized Heating Supply Air Flow Rate
  1,                                      !- Heating Fraction of Autosized Cooling Supply Air Flow Rate
  3.1588213e-005,                         !- Heating Supply Air Flow Rate Per Unit Heating Capacity {m3/s-W}
  CoolingDesignCapacity,                  !- Cooling Design Capacity Method
  autosize,                               !- Cooling Design Capacity {W}
  234.7,                                  !- Cooling Design Capacity Per Floor Area {W/m2}
  1,                                      !- Fraction of Autosized Cooling Design Capacity
  HeatingDesignCapacity,                  !- Heating Design Capacity Method
  autosize,                               !- Heating Design Capacity {W}
  157,                                    !- Heating Design Capacity Per Floor Area {W/m2}
  1,                                      !- Fraction of Autosized Heating Design Capacity
  OnOff;                                  !- Central Cooling Capacity Control Method

OS:Schedule:Constant,
  {4fcfc1e1-36c5-4de3-bf28-2ea2fa388b57}, !- Handle
  Always On Discrete,                     !- Name
  {8d5dcf2c-74da-4fb8-8e43-a33f8c16a73e}, !- Schedule Type Limits Name
  1;                                      !- Value

OS:ScheduleTypeLimits,
  {8d5dcf2c-74da-4fb8-8e43-a33f8c16a73e}, !- Handle
  OnOff,                                  !- Name
  0,                                      !- Lower Limit Value
  1,                                      !- Upper Limit Value
  Discrete,                               !- Numeric Type
  Availability;                           !- Unit Type

OS:AvailabilityManagerAssignmentList,
  {cba1e159-38fe-4b8a-9b1d-31fbb7fa984a}, !- Handle
  Air Loop HVAC 1 AvailabilityManagerAssignmentList; !- Name

OS:ThermalZone,
  {ab3b0554-dd7a-499e-b7ac-bb146b8f91a8}, !- Handle
  Thermal Zone 1,                         !- Name
  ,                                       !- Multiplier
  ,                                       !- Ceiling Height {m}
  ,                                       !- Volume {m3}
  ,                                       !- Floor Area {m2}
  ,                                       !- Zone Inside Convection Algorithm
  ,                                       !- Zone Outside Convection Algorithm
  ,                                       !- Zone Conditioning Equipment List Name
  {a17f789e-63f0-4506-920c-ae52ec3d77a5}, !- Zone Air Inlet Port List
  {1a4a74de-230d-4fd2-8fdb-2f6a3278c016}, !- Zone Air Exhaust Port List
  {241a3df3-4ec1-426b-89de-f110e9849d18}, !- Zone Air Node Name
  {4a43a326-a663-401b-9123-257f7d31bc43}, !- Zone Return Air Node Name
  ,                                       !- Primary Daylighting Control Name
  ,                                       !- Fraction of Zone Controlled by Primary Daylighting Control
  ,                                       !- Secondary Daylighting Control Name
  ,                                       !- Fraction of Zone Controlled by Secondary Daylighting Control
  ,                                       !- Illuminance Map Name
  ,                                       !- Group Rendering Name
  ,                                       !- Thermostat Name
  No;                                     !- Use Ideal Air Loads

OS:Node,
  {13ca29f4-74d6-4939-9861-d41e4f4449fb}, !- Handle
  Node 6,                                 !- Name
  {241a3df3-4ec1-426b-89de-f110e9849d18}, !- Inlet Port
  ;                                       !- Outlet Port

OS:Connection,
  {241a3df3-4ec1-426b-89de-f110e9849d18}, !- Handle
  {9567432f-66ac-4a3b-8aa4-13677e6b6a46}, !- Name
  {ab3b0554-dd7a-499e-b7ac-bb146b8f91a8}, !- Source Object
  11,                                     !- Outlet Port
  {13ca29f4-74d6-4939-9861-d41e4f4449fb}, !- Target Object
  2;                                      !- Inlet Port

OS:PortList,
  {a17f789e-63f0-4506-920c-ae52ec3d77a5}, !- Handle
  {7f9d29c1-dcf2-434c-8ec0-07aa90f7dd8e}, !- Name
  {ab3b0554-dd7a-499e-b7ac-bb146b8f91a8}, !- HVAC Component
  {1cb11929-c03b-4db9-acd3-0028935bb150}; !- Port 1

OS:PortList,
  {1a4a74de-230d-4fd2-8fdb-2f6a3278c016}, !- Handle
  {ef8254e8-0660-4f68-adaa-7bdc64f735d0}, !- Name
  {ab3b0554-dd7a-499e-b7ac-bb146b8f91a8}; !- HVAC Component

OS:Sizing:Zone,
  {c8d44643-26c9-40cc-84a7-68aab8348d04}, !- Handle
  {ab3b0554-dd7a-499e-b7ac-bb146b8f91a8}, !- Zone or ZoneList Name
  SupplyAirTemperature,                   !- Zone Cooling Design Supply Air Temperature Input Method
  14,                                     !- Zone Cooling Design Supply Air Temperature {C}
  11.11,                                  !- Zone Cooling Design Supply Air Temperature Difference {deltaC}
  SupplyAirTemperature,                   !- Zone Heating Design Supply Air Temperature Input Method
  40,                                     !- Zone Heating Design Supply Air Temperature {C}
  11.11,                                  !- Zone Heating Design Supply Air Temperature Difference {deltaC}
  0.0085,                                 !- Zone Cooling Design Supply Air Humidity Ratio {kg-H2O/kg-air}
  0.008,                                  !- Zone Heating Design Supply Air Humidity Ratio {kg-H2O/kg-air}
  ,                                       !- Zone Heating Sizing Factor
  ,                                       !- Zone Cooling Sizing Factor
  DesignDay,                              !- Cooling Design Air Flow Method
  ,                                       !- Cooling Design Air Flow Rate {m3/s}
  ,                                       !- Cooling Minimum Air Flow per Zone Floor Area {m3/s-m2}
  ,                                       !- Cooling Minimum Air Flow {m3/s}
  ,                                       !- Cooling Minimum Air Flow Fraction
  DesignDay,                              !- Heating Design Air Flow Method
  ,                                       !- Heating Design Air Flow Rate {m3/s}
  ,                                       !- Heating Maximum Air Flow per Zone Floor Area {m3/s-m2}
  ,                                       !- Heating Maximum Air Flow {m3/s}
  ,                                       !- Heating Maximum Air Flow Fraction
  ,                                       !- Design Zone Air Distribution Effectiveness in Cooling Mode
  ,                                       !- Design Zone Air Distribution Effectiveness in Heating Mode
  No,                                     !- Account for Dedicated Outdoor Air System
  NeutralSupplyAir,                       !- Dedicated Outdoor Air System Control Strategy
  autosize,                               !- Dedicated Outdoor Air Low Setpoint Temperature for Design {C}
  autosize;                               !- Dedicated Outdoor Air High Setpoint Temperature for Design {C}

OS:ZoneHVAC:EquipmentList,
  {c8422ef2-7c7d-48bc-85f7-6f39900feac6}, !- Handle
  Zone HVAC Equipment List 1,             !- Name
  {ab3b0554-dd7a-499e-b7ac-bb146b8f91a8}; !- Thermal Zone

OS:Node,
  {277d3be0-c426-4d8d-ba10-63824c8a5e5d}, !- Handle
  Node 7,                                 !- Name
  {4a43a326-a663-401b-9123-257f7d31bc43}, !- Inlet Port
  {1272bbe0-6d35-451d-a498-bf296d7fc6fa}; !- Outlet Port

OS:Connection,
  {1cb11929-c03b-4db9-acd3-0028935bb150}, !- Handle
  {41320674-4b28-4322-bd99-4a2bd160608f}, !- Name
  {36493b9d-8924-41e5-9c6f-9f13ea96f4d5}, !- Source Object
  3,                                      !- Outlet Port
  {a17f789e-63f0-4506-920c-ae52ec3d77a5}, !- Target Object
  3;                                      !- Inlet Port

OS:Connection,
  {4a43a326-a663-401b-9123-257f7d31bc43}, !- Handle
  {3a80a91b-490b-427a-977b-439d47de1631}, !- Name
  {ab3b0554-dd7a-499e-b7ac-bb146b8f91a8}, !- Source Object
  12,                                     !- Outlet Port
  {277d3be0-c426-4d8d-ba10-63824c8a5e5d}, !- Target Object
  2;                                      !- Inlet Port

OS:Connection,
  {1272bbe0-6d35-451d-a498-bf296d7fc6fa}, !- Handle
  {6bef2c55-251b-4b7a-a887-549ae6e97810}, !- Name
  {277d3be0-c426-4d8d-ba10-63824c8a5e5d}, !- Source Object
  3,                                      !- Outlet Port
  {6393de16-10a4-44ed-87a5-0077f8ea55ef}, !- Target Object
  3;                                      !- Inlet Port

