
OS:Version,
  {4ac1ea6d-dffc-4e88-92c1-18a3851aab14}, !- Handle
  2.4.0;                                  !- Version Identifier

! TrackingID:#[RDPfdJ]
OS:PlantLoop,
  {19d7af6b-e0ab-442d-b566-0d5dd44870ea}, !- Handle
  Plant Loop 1,                           !- Name
  Water,                                  !- Fluid Type
  0,                                      !- Glycol Concentration
  ,                                       !- User Defined Fluid Type
  ,                                       !- Plant Equipment Operation Heating Load
  ,                                       !- Plant Equipment Operation Cooling Load
  ,                                       !- Primary Plant Equipment Operation Scheme
  {83d736b3-7f07-4842-8402-b4ac10dd18be}, !- Loop Temperature Setpoint Node Name
  ,                                       !- Maximum Loop Temperature {C}
  ,                                       !- Minimum Loop Temperature {C}
  ,                                       !- Maximum Loop Flow Rate {m3/s}
  ,                                       !- Minimum Loop Flow Rate {m3/s}
  Autocalculate,                          !- Plant Loop Volume {m3}
  {57ff67f8-ae85-425a-8f60-f15d5bfd640c}, !- Plant Side Inlet Node Name
  {ee672303-1b3e-4831-823d-608daa4e097c}, !- Plant Side Outlet Node Name
  ,                                       !- Plant Side Branch List Name
  {9ba88381-f932-423e-9219-cd4c0edab508}, !- Demand Side Inlet Node Name
  {63d49383-22f1-4137-b641-236ff267d446}, !- Demand Side Outlet Node Name
  ,                                       !- Demand Side Branch List Name
  ,                                       !- Demand Side Connector List Name
  Optimal,                                !- Load Distribution Scheme
  {0332efc9-11db-4c3f-98da-e1e66d9c20c4}, !- Availability Manager List Name
  ,                                       !- Plant Loop Demand Calculation Scheme
  ,                                       !- Common Pipe Simulation
  ,                                       !- Pressure Simulation Type
  ,                                       !- Plant Equipment Operation Heating Load Schedule
  ,                                       !- Plant Equipment Operation Cooling Load Schedule
  ,                                       !- Primary Plant Equipment Operation Scheme Schedule
  ,                                       !- Component Setpoint Operation Scheme Schedule
  {5437d0b9-31d3-4e29-a6ee-14ad4cb392ed}, !- Demand Mixer Name
  {3693f20e-7656-435f-a7c6-eb48db5583ac}, !- Demand Splitter Name
  {9f050237-77b4-4632-93d6-69d757ce5c03}, !- Supply Mixer Name
  {9e41b21c-f22e-4987-aa96-21f4e977ba4d}; !- Supply Splitter Name

OS:Sizing:Plant,
  {9f39bc93-f03a-4a5a-8afa-115ded3e92e7}, !- Handle
  {19d7af6b-e0ab-442d-b566-0d5dd44870ea}, !- Plant or Condenser Loop Name
  Heating,                                !- Loop Type
  82,                                     !- Design Loop Exit Temperature {C}
  11,                                     !- Loop Design Temperature Difference {deltaC}
  NonCoincident,                          !- Sizing Option
  1,                                      !- Zone Timesteps in Averaging Window
  None;                                   !- Coincident Sizing Factor Mode

OS:Node,
  {641c1886-1db8-4019-86df-8847a7bc5930}, !- Handle
  Node 1,                                 !- Name
  {57ff67f8-ae85-425a-8f60-f15d5bfd640c}, !- Inlet Port
  {0d423ad1-a4a0-4365-900c-17f71fd8f328}; !- Outlet Port

OS:Node,
  {83d736b3-7f07-4842-8402-b4ac10dd18be}, !- Handle
  Node 2,                                 !- Name
  {a90666d3-cf6b-4edc-822f-9d7f737173cb}, !- Inlet Port
  {ee672303-1b3e-4831-823d-608daa4e097c}; !- Outlet Port

OS:Node,
  {de2ad1e4-57b4-4ef3-8217-d6d3cd639631}, !- Handle
  Node 3,                                 !- Name
  {de395344-c7ec-43f3-b55d-20e10d998006}, !- Inlet Port
  {f93141b2-ad4e-4958-83dc-ae61a8fca2d7}; !- Outlet Port

OS:Connector:Mixer,
  {9f050237-77b4-4632-93d6-69d757ce5c03}, !- Handle
  Connector Mixer 1,                      !- Name
  {a90666d3-cf6b-4edc-822f-9d7f737173cb}, !- Outlet Branch Name
  {0d64b7ad-02ae-431f-aad2-14ae7e1346d5}, !- Inlet Branch Name 1
  {05ca71e3-9ecc-4871-b277-ddcd9d65610a}, !- Inlet Branch Name 2
  {1cc2ec2a-e035-4efa-b87b-5ac326473f0b}, !- Inlet Branch Name 3
  {01939455-9bc5-4ea4-81c5-be0bbdadd2c2}; !- Inlet Branch Name 4

OS:Connector:Splitter,
  {9e41b21c-f22e-4987-aa96-21f4e977ba4d}, !- Handle
  Connector Splitter 1,                   !- Name
  {0d423ad1-a4a0-4365-900c-17f71fd8f328}, !- Inlet Branch Name
  {de395344-c7ec-43f3-b55d-20e10d998006}, !- Outlet Branch Name 1
  {d127f2a0-c7fe-4d82-bbe9-f1818e118d55}, !- Outlet Branch Name 2
  {523fe706-3ba9-4213-900d-07ed8925a2a2}, !- Outlet Branch Name 3
  {771d2dd5-e65f-4df4-b0b6-c90417517865}; !- Outlet Branch Name 4

OS:Connection,
  {57ff67f8-ae85-425a-8f60-f15d5bfd640c}, !- Handle
  {e3fe94ea-2e9d-43c8-b17a-e847a16633eb}, !- Name
  {19d7af6b-e0ab-442d-b566-0d5dd44870ea}, !- Source Object
  14,                                     !- Outlet Port
  {641c1886-1db8-4019-86df-8847a7bc5930}, !- Target Object
  2;                                      !- Inlet Port

OS:Connection,
  {0d423ad1-a4a0-4365-900c-17f71fd8f328}, !- Handle
  {8e56936c-facf-4aea-8617-7c79d1d9cf7d}, !- Name
  {641c1886-1db8-4019-86df-8847a7bc5930}, !- Source Object
  3,                                      !- Outlet Port
  {9e41b21c-f22e-4987-aa96-21f4e977ba4d}, !- Target Object
  2;                                      !- Inlet Port

OS:Connection,
  {de395344-c7ec-43f3-b55d-20e10d998006}, !- Handle
  {b99b8050-d62d-4b8d-b7ae-8bf13502120e}, !- Name
  {9e41b21c-f22e-4987-aa96-21f4e977ba4d}, !- Source Object
  3,                                      !- Outlet Port
  {de2ad1e4-57b4-4ef3-8217-d6d3cd639631}, !- Target Object
  2;                                      !- Inlet Port

OS:Connection,
  {a90666d3-cf6b-4edc-822f-9d7f737173cb}, !- Handle
  {d1e2ed79-3623-4af3-92ec-15f0368bd950}, !- Name
  {9f050237-77b4-4632-93d6-69d757ce5c03}, !- Source Object
  2,                                      !- Outlet Port
  {83d736b3-7f07-4842-8402-b4ac10dd18be}, !- Target Object
  2;                                      !- Inlet Port

OS:Connection,
  {ee672303-1b3e-4831-823d-608daa4e097c}, !- Handle
  {9cecc8d2-a4a0-4cd5-94b9-7bb6f53391dc}, !- Name
  {83d736b3-7f07-4842-8402-b4ac10dd18be}, !- Source Object
  3,                                      !- Outlet Port
  {19d7af6b-e0ab-442d-b566-0d5dd44870ea}, !- Target Object
  15;                                     !- Inlet Port

OS:Node,
  {5b504f79-ccb1-4c32-8d70-ff7dcf929c81}, !- Handle
  Node 4,                                 !- Name
  {9ba88381-f932-423e-9219-cd4c0edab508}, !- Inlet Port
  {931f7a76-3c5b-4c7a-bad4-887ad4f3255b}; !- Outlet Port

OS:Node,
  {1bcaba8b-4375-46a8-9325-f3afc9d91a76}, !- Handle
  Node 5,                                 !- Name
  {808bb2f9-aa3c-4e18-b9bb-880ba17ded8d}, !- Inlet Port
  {63d49383-22f1-4137-b641-236ff267d446}; !- Outlet Port

OS:Node,
  {efe02a4e-7abc-4913-a8ad-b4187caff5f7}, !- Handle
  Node 6,                                 !- Name
  {b535d241-4ffb-445c-8a70-1dc370d82930}, !- Inlet Port
  {8d283fb6-d4c8-4e64-8426-19290bdf91fd}; !- Outlet Port

OS:Connector:Mixer,
  {5437d0b9-31d3-4e29-a6ee-14ad4cb392ed}, !- Handle
  Connector Mixer 2,                      !- Name
  {808bb2f9-aa3c-4e18-b9bb-880ba17ded8d}, !- Outlet Branch Name
  {8d283fb6-d4c8-4e64-8426-19290bdf91fd}; !- Inlet Branch Name 1

OS:Connector:Splitter,
  {3693f20e-7656-435f-a7c6-eb48db5583ac}, !- Handle
  Connector Splitter 2,                   !- Name
  {931f7a76-3c5b-4c7a-bad4-887ad4f3255b}, !- Inlet Branch Name
  {b535d241-4ffb-445c-8a70-1dc370d82930}; !- Outlet Branch Name 1

OS:Connection,
  {9ba88381-f932-423e-9219-cd4c0edab508}, !- Handle
  {b1d12096-da8b-4194-8285-e3b2791a39af}, !- Name
  {19d7af6b-e0ab-442d-b566-0d5dd44870ea}, !- Source Object
  17,                                     !- Outlet Port
  {5b504f79-ccb1-4c32-8d70-ff7dcf929c81}, !- Target Object
  2;                                      !- Inlet Port

OS:Connection,
  {931f7a76-3c5b-4c7a-bad4-887ad4f3255b}, !- Handle
  {df0d3839-d3e8-4ba0-9969-9ef9114a370f}, !- Name
  {5b504f79-ccb1-4c32-8d70-ff7dcf929c81}, !- Source Object
  3,                                      !- Outlet Port
  {3693f20e-7656-435f-a7c6-eb48db5583ac}, !- Target Object
  2;                                      !- Inlet Port

OS:Connection,
  {b535d241-4ffb-445c-8a70-1dc370d82930}, !- Handle
  {9f43671e-2fee-4209-96a9-30617a46a4c9}, !- Name
  {3693f20e-7656-435f-a7c6-eb48db5583ac}, !- Source Object
  3,                                      !- Outlet Port
  {efe02a4e-7abc-4913-a8ad-b4187caff5f7}, !- Target Object
  2;                                      !- Inlet Port

OS:Connection,
  {8d283fb6-d4c8-4e64-8426-19290bdf91fd}, !- Handle
  {4c1e51ed-f299-4ac8-a1c8-4c7684ba1f36}, !- Name
  {efe02a4e-7abc-4913-a8ad-b4187caff5f7}, !- Source Object
  3,                                      !- Outlet Port
  {5437d0b9-31d3-4e29-a6ee-14ad4cb392ed}, !- Target Object
  3;                                      !- Inlet Port

OS:Connection,
  {808bb2f9-aa3c-4e18-b9bb-880ba17ded8d}, !- Handle
  {2555f224-f61c-46ea-b5da-10ae27e00809}, !- Name
  {5437d0b9-31d3-4e29-a6ee-14ad4cb392ed}, !- Source Object
  2,                                      !- Outlet Port
  {1bcaba8b-4375-46a8-9325-f3afc9d91a76}, !- Target Object
  2;                                      !- Inlet Port

OS:Connection,
  {63d49383-22f1-4137-b641-236ff267d446}, !- Handle
  {61926a4b-fe6f-434e-a830-72110f0fbbba}, !- Name
  {1bcaba8b-4375-46a8-9325-f3afc9d91a76}, !- Source Object
  3,                                      !- Outlet Port
  {19d7af6b-e0ab-442d-b566-0d5dd44870ea}, !- Target Object
  18;                                     !- Inlet Port

OS:AvailabilityManagerAssignmentList,
  {0332efc9-11db-4c3f-98da-e1e66d9c20c4}, !- Handle
  Plant Loop 1 AvailabilityManagerAssignmentList; !- Name

! TrackingID:#[2L0Zb5]
OS:Boiler:HotWater,
  {5f8dc795-c1e4-4ed1-ad16-0cc637a18a00}, !- Handle
  boiler1,                                !- Name
  ,                                       !- Fuel Type
  ,                                       !- Nominal Capacity {W}
  ,                                       !- Nominal Thermal Efficiency
  ,                                       !- Efficiency Curve Temperature Evaluation Variable
  ,                                       !- Normalized Boiler Efficiency Curve Name
  ,                                       !- Design Water Outlet Temperature {C}
  ,                                       !- Design Water Flow Rate {m3/s}
  ,                                       !- Minimum Part Load Ratio
  ,                                       !- Maximum Part Load Ratio
  ,                                       !- Optimum Part Load Ratio
  {f93141b2-ad4e-4958-83dc-ae61a8fca2d7}, !- Boiler Water Inlet Node Name
  {33126e8a-6335-4ac4-af91-ae61fbff8067}, !- Boiler Water Outlet Node Name
  99,                                     !- Water Outlet Upper Temperature Limit {C}
  ConstantFlow,                           !- Boiler Flow Mode
  0,                                      !- Parasitic Electric Load {W}
  1;                                      !- Sizing Factor

OS:Node,
  {7aaa6b8d-2b4f-4202-b841-708ebe365824}, !- Handle
  Node 7,                                 !- Name
  {33126e8a-6335-4ac4-af91-ae61fbff8067}, !- Inlet Port
  {4f8a3524-4e8c-4f82-a9ea-4c57166816a2}; !- Outlet Port

OS:Connection,
  {f93141b2-ad4e-4958-83dc-ae61a8fca2d7}, !- Handle
  {8d9c60c9-dfe5-444b-a426-427eacb315ed}, !- Name
  {de2ad1e4-57b4-4ef3-8217-d6d3cd639631}, !- Source Object
  3,                                      !- Outlet Port
  {5f8dc795-c1e4-4ed1-ad16-0cc637a18a00}, !- Target Object
  12;                                     !- Inlet Port

OS:Connection,
  {33126e8a-6335-4ac4-af91-ae61fbff8067}, !- Handle
  {d82418cf-dbd6-4926-ba22-bb48e9691c5c}, !- Name
  {5f8dc795-c1e4-4ed1-ad16-0cc637a18a00}, !- Source Object
  13,                                     !- Outlet Port
  {7aaa6b8d-2b4f-4202-b841-708ebe365824}, !- Target Object
  2;                                      !- Inlet Port

! TrackingID:#[60yQli]
OS:Pump:ConstantSpeed,
  {c0740979-d782-40c0-9101-a8b76bc91670}, !- Handle
  Pump Constant Speed 1,                  !- Name
  {4f8a3524-4e8c-4f82-a9ea-4c57166816a2}, !- Inlet Node Name
  {ccbb8c70-c30c-48e5-a700-7734173762b5}, !- Outlet Node Name
  autosize,                               !- Rated Flow Rate {m3/s}
  179352,                                 !- Rated Pump Head {Pa}
  autosize,                               !- Rated Power Consumption {W}
  0.9,                                    !- Motor Efficiency
  0,                                      !- Fraction of Motor Inefficiencies to Fluid Stream
  Intermittent,                           !- Pump Control Type
  ,                                       !- Pump Flow Rate Schedule
  ,                                       !- Pump Curve
  ,                                       !- Impeller Diameter {m}
  ,                                       !- Rotational Speed {rev/min}
  ,                                       !- Zone
  ,                                       !- Skin Loss Radiative Fraction
  PowerPerFlowPerPressure,                !- Design Power Sizing Method
  348701.1,                               !- Design Electric Power per Unit Flow Rate {W/(m3/s)}
  1.282051282;                            !- Design Shaft Power per Unit Flow Rate per Unit Head {W-s/m3-Pa}

OS:Node,
  {2ccdf603-1429-4528-8ea3-14d300ef5b6b}, !- Handle
  Node 8,                                 !- Name
  {ccbb8c70-c30c-48e5-a700-7734173762b5}, !- Inlet Port
  {0d64b7ad-02ae-431f-aad2-14ae7e1346d5}; !- Outlet Port

OS:Connection,
  {4f8a3524-4e8c-4f82-a9ea-4c57166816a2}, !- Handle
  {4ca59a38-1863-41fa-8eb7-2c519b748aec}, !- Name
  {7aaa6b8d-2b4f-4202-b841-708ebe365824}, !- Source Object
  3,                                      !- Outlet Port
  {c0740979-d782-40c0-9101-a8b76bc91670}, !- Target Object
  2;                                      !- Inlet Port

OS:Connection,
  {ccbb8c70-c30c-48e5-a700-7734173762b5}, !- Handle
  {66d57684-789e-4b6c-a710-fc67d63a4367}, !- Name
  {c0740979-d782-40c0-9101-a8b76bc91670}, !- Source Object
  3,                                      !- Outlet Port
  {2ccdf603-1429-4528-8ea3-14d300ef5b6b}, !- Target Object
  2;                                      !- Inlet Port

OS:Connection,
  {0d64b7ad-02ae-431f-aad2-14ae7e1346d5}, !- Handle
  {2c5b4918-3390-4a97-a0f4-e2e008111d3d}, !- Name
  {2ccdf603-1429-4528-8ea3-14d300ef5b6b}, !- Source Object
  3,                                      !- Outlet Port
  {9f050237-77b4-4632-93d6-69d757ce5c03}, !- Target Object
  3;                                      !- Inlet Port

! TrackingID:#[kAyPbz]
OS:Boiler:HotWater,
  {6abf119c-b39c-4f04-b789-262bfd605452}, !- Handle
  boiler2,                                !- Name
  ,                                       !- Fuel Type
  ,                                       !- Nominal Capacity {W}
  ,                                       !- Nominal Thermal Efficiency
  ,                                       !- Efficiency Curve Temperature Evaluation Variable
  ,                                       !- Normalized Boiler Efficiency Curve Name
  ,                                       !- Design Water Outlet Temperature {C}
  ,                                       !- Design Water Flow Rate {m3/s}
  ,                                       !- Minimum Part Load Ratio
  ,                                       !- Maximum Part Load Ratio
  ,                                       !- Optimum Part Load Ratio
  {0d788dfd-78b2-4a06-93e9-8bde9c0029d7}, !- Boiler Water Inlet Node Name
  {9f939d76-c930-449d-9a2a-5926fadc9d53}, !- Boiler Water Outlet Node Name
  99,                                     !- Water Outlet Upper Temperature Limit {C}
  ConstantFlow,                           !- Boiler Flow Mode
  0,                                      !- Parasitic Electric Load {W}
  1;                                      !- Sizing Factor

OS:Node,
  {bfeade9b-8477-4c30-8645-797f5397031d}, !- Handle
  Node 9,                                 !- Name
  {d127f2a0-c7fe-4d82-bbe9-f1818e118d55}, !- Inlet Port
  {0d788dfd-78b2-4a06-93e9-8bde9c0029d7}; !- Outlet Port

OS:Connection,
  {d127f2a0-c7fe-4d82-bbe9-f1818e118d55}, !- Handle
  {61facaf6-717c-4476-8772-a1a910479a99}, !- Name
  {9e41b21c-f22e-4987-aa96-21f4e977ba4d}, !- Source Object
  4,                                      !- Outlet Port
  {bfeade9b-8477-4c30-8645-797f5397031d}, !- Target Object
  2;                                      !- Inlet Port

OS:Node,
  {d43c53f2-b50f-4a90-b207-f969ca2efbee}, !- Handle
  Node 10,                                !- Name
  {9f939d76-c930-449d-9a2a-5926fadc9d53}, !- Inlet Port
  {8a4b28a8-d5d3-471a-9769-3af2d2110178}; !- Outlet Port

OS:Connection,
  {0d788dfd-78b2-4a06-93e9-8bde9c0029d7}, !- Handle
  {20a2a2fc-9e48-4d3c-8f70-ffd734849e2a}, !- Name
  {bfeade9b-8477-4c30-8645-797f5397031d}, !- Source Object
  3,                                      !- Outlet Port
  {6abf119c-b39c-4f04-b789-262bfd605452}, !- Target Object
  12;                                     !- Inlet Port

OS:Connection,
  {9f939d76-c930-449d-9a2a-5926fadc9d53}, !- Handle
  {79bc54d3-e948-455a-bd75-639106c72dfc}, !- Name
  {6abf119c-b39c-4f04-b789-262bfd605452}, !- Source Object
  13,                                     !- Outlet Port
  {d43c53f2-b50f-4a90-b207-f969ca2efbee}, !- Target Object
  2;                                      !- Inlet Port

! TrackingID:#[w7w4gL]
OS:Pump:VariableSpeed,
  {53df28ce-b90c-483a-8cde-3d156d36a4bc}, !- Handle
  Pump Variable Speed 1,                  !- Name
  {8a4b28a8-d5d3-471a-9769-3af2d2110178}, !- Inlet Node Name
  {759b0be8-c7de-4e75-ab6a-f038e6ccab4f}, !- Outlet Node Name
  ,                                       !- Rated Flow Rate {m3/s}
  ,                                       !- Rated Pump Head {Pa}
  ,                                       !- Rated Power Consumption {W}
  ,                                       !- Motor Efficiency
  ,                                       !- Fraction of Motor Inefficiencies to Fluid Stream
  ,                                       !- Coefficient 1 of the Part Load Performance Curve
  ,                                       !- Coefficient 2 of the Part Load Performance Curve
  ,                                       !- Coefficient 3 of the Part Load Performance Curve
  ,                                       !- Coefficient 4 of the Part Load Performance Curve
  ,                                       !- Minimum Flow Rate {m3/s}
  Intermittent,                           !- Pump Control Type
  ,                                       !- Pump Flow Rate Schedule Name
  ,                                       !- Pump Curve Name
  ,                                       !- Impeller Diameter {m}
  ,                                       !- VFD Control Type
  ,                                       !- Pump rpm Schedule Name
  ,                                       !- Minimum Pressure Schedule {Pa}
  ,                                       !- Maximum Pressure Schedule {Pa}
  ,                                       !- Minimum RPM Schedule {Rotations Per Minute}
  ,                                       !- Maximum RPM Schedule {Rotations Per Minute}
  ,                                       !- Zone Name
  0.5,                                    !- Skin Loss Radiative Fraction
  PowerPerFlowPerPressure,                !- Design Power Sizing Method
  348701.1,                               !- Design Electric Power per Unit Flow Rate {W/(m3/s)}
  1.282051282,                            !- Design Shaft Power per Unit Flow Rate per Unit Head {W-s/m3-Pa}
  0;                                      !- Design Minimum Flow Rate Fraction

OS:Node,
  {1d2fcf31-9431-476b-a9b3-d176e71bcf5e}, !- Handle
  Node 11,                                !- Name
  {759b0be8-c7de-4e75-ab6a-f038e6ccab4f}, !- Inlet Port
  {05ca71e3-9ecc-4871-b277-ddcd9d65610a}; !- Outlet Port

OS:Connection,
  {8a4b28a8-d5d3-471a-9769-3af2d2110178}, !- Handle
  {37d82e04-84e9-4f68-9c73-6527bfe4aaa1}, !- Name
  {d43c53f2-b50f-4a90-b207-f969ca2efbee}, !- Source Object
  3,                                      !- Outlet Port
  {53df28ce-b90c-483a-8cde-3d156d36a4bc}, !- Target Object
  2;                                      !- Inlet Port

OS:Connection,
  {759b0be8-c7de-4e75-ab6a-f038e6ccab4f}, !- Handle
  {ed4f9bb3-a250-4ab9-930d-2d999d507a50}, !- Name
  {53df28ce-b90c-483a-8cde-3d156d36a4bc}, !- Source Object
  3,                                      !- Outlet Port
  {1d2fcf31-9431-476b-a9b3-d176e71bcf5e}, !- Target Object
  2;                                      !- Inlet Port

OS:Connection,
  {05ca71e3-9ecc-4871-b277-ddcd9d65610a}, !- Handle
  {58d75c32-8509-4d00-a0cb-efc5923f6e51}, !- Name
  {1d2fcf31-9431-476b-a9b3-d176e71bcf5e}, !- Source Object
  3,                                      !- Outlet Port
  {9f050237-77b4-4632-93d6-69d757ce5c03}, !- Target Object
  4;                                      !- Inlet Port

! TrackingID:#[YzB1Qc]
OS:Pump:VariableSpeed,
  {896efc9b-c9ee-4076-bc6e-2a7f972daa37}, !- Handle
  Pump Variable Speed 2,                  !- Name
  {466fdbb3-9480-40a3-8423-c0a7b3dba7d7}, !- Inlet Node Name
  {e94c3218-1d8c-4b53-a076-39e700221177}, !- Outlet Node Name
  ,                                       !- Rated Flow Rate {m3/s}
  ,                                       !- Rated Pump Head {Pa}
  ,                                       !- Rated Power Consumption {W}
  ,                                       !- Motor Efficiency
  ,                                       !- Fraction of Motor Inefficiencies to Fluid Stream
  ,                                       !- Coefficient 1 of the Part Load Performance Curve
  ,                                       !- Coefficient 2 of the Part Load Performance Curve
  ,                                       !- Coefficient 3 of the Part Load Performance Curve
  ,                                       !- Coefficient 4 of the Part Load Performance Curve
  ,                                       !- Minimum Flow Rate {m3/s}
  Intermittent,                           !- Pump Control Type
  ,                                       !- Pump Flow Rate Schedule Name
  ,                                       !- Pump Curve Name
  ,                                       !- Impeller Diameter {m}
  ,                                       !- VFD Control Type
  ,                                       !- Pump rpm Schedule Name
  ,                                       !- Minimum Pressure Schedule {Pa}
  ,                                       !- Maximum Pressure Schedule {Pa}
  ,                                       !- Minimum RPM Schedule {Rotations Per Minute}
  ,                                       !- Maximum RPM Schedule {Rotations Per Minute}
  ,                                       !- Zone Name
  0.5,                                    !- Skin Loss Radiative Fraction
  PowerPerFlowPerPressure,                !- Design Power Sizing Method
  348701.1,                               !- Design Electric Power per Unit Flow Rate {W/(m3/s)}
  1.282051282,                            !- Design Shaft Power per Unit Flow Rate per Unit Head {W-s/m3-Pa}
  0;                                      !- Design Minimum Flow Rate Fraction

OS:Node,
  {191ee25a-a8bc-4484-a1c1-4a268828375b}, !- Handle
  Node 12,                                !- Name
  {523fe706-3ba9-4213-900d-07ed8925a2a2}, !- Inlet Port
  {466fdbb3-9480-40a3-8423-c0a7b3dba7d7}; !- Outlet Port

OS:Connection,
  {523fe706-3ba9-4213-900d-07ed8925a2a2}, !- Handle
  {ea026076-09db-4d8f-b224-08c2deb7d995}, !- Name
  {9e41b21c-f22e-4987-aa96-21f4e977ba4d}, !- Source Object
  5,                                      !- Outlet Port
  {191ee25a-a8bc-4484-a1c1-4a268828375b}, !- Target Object
  2;                                      !- Inlet Port

OS:Node,
  {32b1e403-0590-4388-a5d6-d4e93f387daa}, !- Handle
  Node 13,                                !- Name
  {e94c3218-1d8c-4b53-a076-39e700221177}, !- Inlet Port
  {1cc2ec2a-e035-4efa-b87b-5ac326473f0b}; !- Outlet Port

OS:Connection,
  {466fdbb3-9480-40a3-8423-c0a7b3dba7d7}, !- Handle
  {9c48c760-a27a-49a0-a59b-c3c14df359e1}, !- Name
  {191ee25a-a8bc-4484-a1c1-4a268828375b}, !- Source Object
  3,                                      !- Outlet Port
  {896efc9b-c9ee-4076-bc6e-2a7f972daa37}, !- Target Object
  2;                                      !- Inlet Port

OS:Connection,
  {e94c3218-1d8c-4b53-a076-39e700221177}, !- Handle
  {87ce6369-07b6-44d8-a86c-165cfb39efca}, !- Name
  {896efc9b-c9ee-4076-bc6e-2a7f972daa37}, !- Source Object
  3,                                      !- Outlet Port
  {32b1e403-0590-4388-a5d6-d4e93f387daa}, !- Target Object
  2;                                      !- Inlet Port

OS:Connection,
  {1cc2ec2a-e035-4efa-b87b-5ac326473f0b}, !- Handle
  {3d36e33c-84e0-4645-93b0-6306c67d8ec0}, !- Name
  {32b1e403-0590-4388-a5d6-d4e93f387daa}, !- Source Object
  3,                                      !- Outlet Port
  {9f050237-77b4-4632-93d6-69d757ce5c03}, !- Target Object
  5;                                      !- Inlet Port

! TrackingID:#[RghJw7]
OS:Pump:ConstantSpeed,
  {43d970fe-5136-4762-b576-d4e8c52c5d2a}, !- Handle
  Pump Constant Speed 2,                  !- Name
  {e31861b7-f745-4c49-aba3-ff7c8167e150}, !- Inlet Node Name
  {031527e8-152a-415d-987c-0ba2cf486b4c}, !- Outlet Node Name
  autosize,                               !- Rated Flow Rate {m3/s}
  179352,                                 !- Rated Pump Head {Pa}
  autosize,                               !- Rated Power Consumption {W}
  0.9,                                    !- Motor Efficiency
  0,                                      !- Fraction of Motor Inefficiencies to Fluid Stream
  Intermittent,                           !- Pump Control Type
  ,                                       !- Pump Flow Rate Schedule
  ,                                       !- Pump Curve
  ,                                       !- Impeller Diameter {m}
  ,                                       !- Rotational Speed {rev/min}
  ,                                       !- Zone
  ,                                       !- Skin Loss Radiative Fraction
  PowerPerFlowPerPressure,                !- Design Power Sizing Method
  348701.1,                               !- Design Electric Power per Unit Flow Rate {W/(m3/s)}
  1.282051282;                            !- Design Shaft Power per Unit Flow Rate per Unit Head {W-s/m3-Pa}

OS:Node,
  {6789d860-7736-4867-8a97-15a2f8e0a53c}, !- Handle
  Node 14,                                !- Name
  {771d2dd5-e65f-4df4-b0b6-c90417517865}, !- Inlet Port
  {e31861b7-f745-4c49-aba3-ff7c8167e150}; !- Outlet Port

OS:Connection,
  {771d2dd5-e65f-4df4-b0b6-c90417517865}, !- Handle
  {64464f02-59c3-4fc6-81b3-0a7ba1e63192}, !- Name
  {9e41b21c-f22e-4987-aa96-21f4e977ba4d}, !- Source Object
  6,                                      !- Outlet Port
  {6789d860-7736-4867-8a97-15a2f8e0a53c}, !- Target Object
  2;                                      !- Inlet Port

OS:Node,
  {55b83589-49c2-4a8b-99e1-736935d8b83f}, !- Handle
  Node 15,                                !- Name
  {031527e8-152a-415d-987c-0ba2cf486b4c}, !- Inlet Port
  {01939455-9bc5-4ea4-81c5-be0bbdadd2c2}; !- Outlet Port

OS:Connection,
  {e31861b7-f745-4c49-aba3-ff7c8167e150}, !- Handle
  {094fd787-29a7-49a1-9652-9bb05e847ae9}, !- Name
  {6789d860-7736-4867-8a97-15a2f8e0a53c}, !- Source Object
  3,                                      !- Outlet Port
  {43d970fe-5136-4762-b576-d4e8c52c5d2a}, !- Target Object
  2;                                      !- Inlet Port

OS:Connection,
  {031527e8-152a-415d-987c-0ba2cf486b4c}, !- Handle
  {673bcc35-4b2e-454d-8a85-4c8bc862d742}, !- Name
  {43d970fe-5136-4762-b576-d4e8c52c5d2a}, !- Source Object
  3,                                      !- Outlet Port
  {55b83589-49c2-4a8b-99e1-736935d8b83f}, !- Target Object
  2;                                      !- Inlet Port

OS:Connection,
  {01939455-9bc5-4ea4-81c5-be0bbdadd2c2}, !- Handle
  {1591110e-d830-43de-a700-3c9b49457cf9}, !- Name
  {55b83589-49c2-4a8b-99e1-736935d8b83f}, !- Source Object
  3,                                      !- Outlet Port
  {9f050237-77b4-4632-93d6-69d757ce5c03}, !- Target Object
  6;                                      !- Inlet Port

