
OS:Version,
  {54ba59c0-da3e-4770-bbb5-6626962e14aa}, !- Handle
  2.4.0;                                  !- Version Identifier

OS:Site,
  {05434a70-62c7-4503-8c48-b541842c670a}, !- Handle
  Site 1,                                 !- Name
  ,                                       !- Latitude {deg}
  ,                                       !- Longitude {deg}
  ,                                       !- Time Zone {hr}
  ,                                       !- Elevation {m}
  ;                                       !- Terrain

OS:YearDescription,
  {eeb90ec8-73ea-4ede-a080-cfdfb7e9c631}; !- Handle

OS:ClimateZones,
  {ed5ef348-ff69-4d27-a05b-e41e88caa7cb}, !- Handle
  ,                                       !- Active Institution
  ,                                       !- Active Year
  ,                                       !- Climate Zone Institution Name 1
  ,                                       !- Climate Zone Document Name 1
  ,                                       !- Climate Zone Document Year 1
  ,                                       !- Climate Zone Value 1
  CEC,                                    !- Climate Zone Institution Name 2
  California Climate Zone Descriptions,   !- Climate Zone Document Name 2
  1995,                                   !- Climate Zone Document Year 2
  ;                                       !- Climate Zone Value 2

OS:Building,
  {b8cf50c0-3e97-426a-ba79-cd88094c77a7}, !- Handle
  Building 1,                             !- Name
  ,                                       !- Building Sector Type
  ,                                       !- North Axis {deg}
  ,                                       !- Nominal Floor to Floor Height {m}
  ,                                       !- Space Type Name
  ,                                       !- Default Construction Set Name
  ;                                       !- Default Schedule Set Name

OS:Facility,
  {1d179c43-e4f0-4e1d-8425-b684445b13ec}; !- Handle

OS:SimulationControl,
  {2f9ec432-9d60-4970-9c33-fd7721e93bb5}; !- Handle

OS:Sizing:Parameters,
  {df7e76a6-f899-4e5d-aa7f-14c9514bc240}, !- Handle
  1.25,                                   !- Heating Sizing Factor
  1.15;                                   !- Cooling Sizing Factor

OS:Timestep,
  {875f92db-3925-41cd-88f0-653912d7d558}, !- Handle
  6;                                      !- Number of Timesteps per Hour

OS:ShadowCalculation,
  {4caa93f5-5e24-45ca-ab7b-b87bb9051f83}, !- Handle
  20,                                     !- Calculation Frequency
  15000;                                  !- Maximum Figures in Shadow Overlap Calculations

OS:HeatBalanceAlgorithm,
  {643096b3-5938-4c49-b35e-ccf434c56d5f}, !- Handle
  ConductionTransferFunction,             !- Algorithm
  200;                                    !- Surface Temperature Upper Limit {C}

OS:RunPeriod,
  {7fd01dbe-5dec-410e-b008-32ffb319efa8}, !- Handle
  Run Period 1,                           !- Name
  1,                                      !- Begin Month
  1,                                      !- Begin Day of Month
  12,                                     !- End Month
  31,                                     !- End Day of Month
  ,                                       !- Use Weather File Holidays and Special Days
  ,                                       !- Use Weather File Daylight Saving Period
  ,                                       !- Apply Weekend Holiday Rule
  ,                                       !- Use Weather File Rain Indicators
  ,                                       !- Use Weather File Snow Indicators
  ;                                       !- Number of Times Runperiod to be Repeated

OS:LifeCycleCost:Parameters,
  {ebe5a6d1-7b0d-400d-976d-638e1cc9a5fe}, !- Handle
  ,                                       !- Analysis Type
  ,                                       !- Discounting Convention
  ,                                       !- Inflation Approach
  ,                                       !- Real Discount Rate
  ,                                       !- Nominal Discount Rate
  ,                                       !- Inflation
  ,                                       !- Base Date Month
  ,                                       !- Base Date Year
  ,                                       !- Service Date Month
  ,                                       !- Service Date Year
  ;                                       !- Length of Study Period in Years

OS:PlantLoop,
  {c883d7e1-2417-43c3-8d2a-724434125285}, !- Handle
  _Hot Water Loop,                        !- Name
  ,                                       !- Fluid Type
  0,                                      !- Glycol Concentration
  ,                                       !- User Defined Fluid Type
  ,                                       !- Plant Equipment Operation Heating Load
  ,                                       !- Plant Equipment Operation Cooling Load
  ,                                       !- Primary Plant Equipment Operation Scheme
  {1d3886d9-5c9e-4867-b332-c3889e8c9c0c}, !- Loop Temperature Setpoint Node Name
  ,                                       !- Maximum Loop Temperature {C}
  ,                                       !- Minimum Loop Temperature {C}
  ,                                       !- Maximum Loop Flow Rate {m3/s}
  ,                                       !- Minimum Loop Flow Rate {m3/s}
  Autocalculate,                          !- Plant Loop Volume {m3}
  {35fad0a3-1b49-415d-8ab5-af91fd3669b0}, !- Plant Side Inlet Node Name
  {1dedc7e0-9b7a-4706-bce5-22156a238e10}, !- Plant Side Outlet Node Name
  ,                                       !- Plant Side Branch List Name
  {b88f595a-ba33-49f7-b965-ac3bb5768b54}, !- Demand Side Inlet Node Name
  {7ea8cb63-877a-448d-b5af-471e7aa6ced3}, !- Demand Side Outlet Node Name
  ,                                       !- Demand Side Branch List Name
  ,                                       !- Demand Side Connector List Name
  Optimal,                                !- Load Distribution Scheme
  {063568a6-2d9c-4de2-b880-b35aa8944d0c}, !- Availability Manager List Name
  ,                                       !- Plant Loop Demand Calculation Scheme
  ,                                       !- Common Pipe Simulation
  ,                                       !- Pressure Simulation Type
  ,                                       !- Plant Equipment Operation Heating Load Schedule
  ,                                       !- Plant Equipment Operation Cooling Load Schedule
  ,                                       !- Primary Plant Equipment Operation Scheme Schedule
  ,                                       !- Component Setpoint Operation Scheme Schedule
  {ac19e001-d355-455b-aed7-f31d711bd7d9}, !- Demand Mixer Name
  {74a52cd6-f1b4-4080-8003-086b5d5341da}, !- Demand Splitter Name
  {ccaf7ece-1143-4b6c-bc8c-b66ebbcbc726}, !- Supply Mixer Name
  {94d4a5d4-56f1-4bee-a359-6b4421c57a16}; !- Supply Splitter Name

OS:Sizing:Plant,
  {7589974c-d81e-472b-937d-b7e890468da3}, !- Handle
  {c883d7e1-2417-43c3-8d2a-724434125285}, !- Plant or Condenser Loop Name
  Heating,                                !- Loop Type
  82,                                     !- Design Loop Exit Temperature {C}
  11,                                     !- Loop Design Temperature Difference {deltaC}
  NonCoincident,                          !- Sizing Option
  1,                                      !- Zone Timesteps in Averaging Window
  None;                                   !- Coincident Sizing Factor Mode

OS:Node,
  {666f2304-4871-4455-bb12-5d866987bd2a}, !- Handle
  Node 1,                                 !- Name
  {35fad0a3-1b49-415d-8ab5-af91fd3669b0}, !- Inlet Port
  {b8e2bb80-3c00-49a9-9250-2ecfc42766ca}; !- Outlet Port

OS:Node,
  {1d3886d9-5c9e-4867-b332-c3889e8c9c0c}, !- Handle
  Node 2,                                 !- Name
  {f0cd527a-fb2d-4d59-b817-824ee73a0879}, !- Inlet Port
  {1dedc7e0-9b7a-4706-bce5-22156a238e10}; !- Outlet Port

OS:Node,
  {306816a3-e2df-46e2-b717-a2b40061dc9a}, !- Handle
  Node 3,                                 !- Name
  {c4d16a19-d681-42fa-8fb7-ad320196d56b}, !- Inlet Port
  {ce456d5b-cc80-4ad2-8fa8-4fff8e63eb7f}; !- Outlet Port

OS:Connector:Mixer,
  {ccaf7ece-1143-4b6c-bc8c-b66ebbcbc726}, !- Handle
  Connector Mixer 1,                      !- Name
  {f0cd527a-fb2d-4d59-b817-824ee73a0879}, !- Outlet Branch Name
  {ce456d5b-cc80-4ad2-8fa8-4fff8e63eb7f}; !- Inlet Branch Name 1

OS:Connector:Splitter,
  {94d4a5d4-56f1-4bee-a359-6b4421c57a16}, !- Handle
  Connector Splitter 1,                   !- Name
  {b8e2bb80-3c00-49a9-9250-2ecfc42766ca}, !- Inlet Branch Name
  {c4d16a19-d681-42fa-8fb7-ad320196d56b}; !- Outlet Branch Name 1

OS:Connection,
  {35fad0a3-1b49-415d-8ab5-af91fd3669b0}, !- Handle
  {19c8bf53-82bd-4b16-b069-85ff8e6c9e13}, !- Name
  {c883d7e1-2417-43c3-8d2a-724434125285}, !- Source Object
  14,                                     !- Outlet Port
  {666f2304-4871-4455-bb12-5d866987bd2a}, !- Target Object
  2;                                      !- Inlet Port

OS:Connection,
  {b8e2bb80-3c00-49a9-9250-2ecfc42766ca}, !- Handle
  {68dccd75-ae4d-458d-94ff-3b7cfc7c77d4}, !- Name
  {666f2304-4871-4455-bb12-5d866987bd2a}, !- Source Object
  3,                                      !- Outlet Port
  {94d4a5d4-56f1-4bee-a359-6b4421c57a16}, !- Target Object
  2;                                      !- Inlet Port

OS:Connection,
  {c4d16a19-d681-42fa-8fb7-ad320196d56b}, !- Handle
  {db44247e-f9cb-4ce6-a67f-84de6949d172}, !- Name
  {94d4a5d4-56f1-4bee-a359-6b4421c57a16}, !- Source Object
  3,                                      !- Outlet Port
  {306816a3-e2df-46e2-b717-a2b40061dc9a}, !- Target Object
  2;                                      !- Inlet Port

OS:Connection,
  {ce456d5b-cc80-4ad2-8fa8-4fff8e63eb7f}, !- Handle
  {e5d0a7c6-b37a-45f3-aaf7-31a3075e9903}, !- Name
  {306816a3-e2df-46e2-b717-a2b40061dc9a}, !- Source Object
  3,                                      !- Outlet Port
  {ccaf7ece-1143-4b6c-bc8c-b66ebbcbc726}, !- Target Object
  3;                                      !- Inlet Port

OS:Connection,
  {f0cd527a-fb2d-4d59-b817-824ee73a0879}, !- Handle
  {ae980c1e-b12c-4ae6-a2e4-2708bcf372d2}, !- Name
  {ccaf7ece-1143-4b6c-bc8c-b66ebbcbc726}, !- Source Object
  2,                                      !- Outlet Port
  {1d3886d9-5c9e-4867-b332-c3889e8c9c0c}, !- Target Object
  2;                                      !- Inlet Port

OS:Connection,
  {1dedc7e0-9b7a-4706-bce5-22156a238e10}, !- Handle
  {fd48d5da-bb80-453b-aa63-8ca92b3b2dbe}, !- Name
  {1d3886d9-5c9e-4867-b332-c3889e8c9c0c}, !- Source Object
  3,                                      !- Outlet Port
  {c883d7e1-2417-43c3-8d2a-724434125285}, !- Target Object
  15;                                     !- Inlet Port

OS:Node,
  {04a9d2dc-2bc5-41cc-923e-53b29387d4d2}, !- Handle
  Node 4,                                 !- Name
  {b88f595a-ba33-49f7-b965-ac3bb5768b54}, !- Inlet Port
  {35939535-2009-47ee-82f4-a6e1cf7ac717}; !- Outlet Port

OS:Node,
  {174707ec-46c7-4bc9-9514-d01471cacf5c}, !- Handle
  Node 5,                                 !- Name
  {88b5c8b3-37e8-4ff3-abad-9dc71d17b7ef}, !- Inlet Port
  {7ea8cb63-877a-448d-b5af-471e7aa6ced3}; !- Outlet Port

OS:Node,
  {e3969d62-9ef0-4c9e-81b8-7097a9f148e9}, !- Handle
  Node 6,                                 !- Name
  {44c7d3ef-7f15-471b-ab6a-5c343653ee9d}, !- Inlet Port
  {f6475661-bc2e-4769-9dd9-07807d263b6a}; !- Outlet Port

OS:Connector:Mixer,
  {ac19e001-d355-455b-aed7-f31d711bd7d9}, !- Handle
  Connector Mixer 2,                      !- Name
  {88b5c8b3-37e8-4ff3-abad-9dc71d17b7ef}, !- Outlet Branch Name
  {f6475661-bc2e-4769-9dd9-07807d263b6a}; !- Inlet Branch Name 1

OS:Connector:Splitter,
  {74a52cd6-f1b4-4080-8003-086b5d5341da}, !- Handle
  Connector Splitter 2,                   !- Name
  {35939535-2009-47ee-82f4-a6e1cf7ac717}, !- Inlet Branch Name
  {44c7d3ef-7f15-471b-ab6a-5c343653ee9d}; !- Outlet Branch Name 1

OS:Connection,
  {b88f595a-ba33-49f7-b965-ac3bb5768b54}, !- Handle
  {d6559ab9-bbc6-4bee-aee1-fd48109e8f86}, !- Name
  {c883d7e1-2417-43c3-8d2a-724434125285}, !- Source Object
  17,                                     !- Outlet Port
  {04a9d2dc-2bc5-41cc-923e-53b29387d4d2}, !- Target Object
  2;                                      !- Inlet Port

OS:Connection,
  {35939535-2009-47ee-82f4-a6e1cf7ac717}, !- Handle
  {4572c9e6-4440-4b50-815a-471d5275ffc9}, !- Name
  {04a9d2dc-2bc5-41cc-923e-53b29387d4d2}, !- Source Object
  3,                                      !- Outlet Port
  {74a52cd6-f1b4-4080-8003-086b5d5341da}, !- Target Object
  2;                                      !- Inlet Port

OS:Connection,
  {44c7d3ef-7f15-471b-ab6a-5c343653ee9d}, !- Handle
  {5a5da305-2b84-4c2f-9ddf-6bd32bcd3245}, !- Name
  {74a52cd6-f1b4-4080-8003-086b5d5341da}, !- Source Object
  3,                                      !- Outlet Port
  {e3969d62-9ef0-4c9e-81b8-7097a9f148e9}, !- Target Object
  2;                                      !- Inlet Port

OS:Connection,
  {f6475661-bc2e-4769-9dd9-07807d263b6a}, !- Handle
  {db0c16fb-3d60-455a-9f1f-9da58a252a9b}, !- Name
  {e3969d62-9ef0-4c9e-81b8-7097a9f148e9}, !- Source Object
  3,                                      !- Outlet Port
  {ac19e001-d355-455b-aed7-f31d711bd7d9}, !- Target Object
  3;                                      !- Inlet Port

OS:Connection,
  {88b5c8b3-37e8-4ff3-abad-9dc71d17b7ef}, !- Handle
  {2a680032-5a56-45b9-970e-7b4ec6abe3c8}, !- Name
  {ac19e001-d355-455b-aed7-f31d711bd7d9}, !- Source Object
  2,                                      !- Outlet Port
  {174707ec-46c7-4bc9-9514-d01471cacf5c}, !- Target Object
  2;                                      !- Inlet Port

OS:Connection,
  {7ea8cb63-877a-448d-b5af-471e7aa6ced3}, !- Handle
  {581f9e9c-7441-45c8-acbd-f581bcec8132}, !- Name
  {174707ec-46c7-4bc9-9514-d01471cacf5c}, !- Source Object
  3,                                      !- Outlet Port
  {c883d7e1-2417-43c3-8d2a-724434125285}, !- Target Object
  18;                                     !- Inlet Port

OS:AvailabilityManagerAssignmentList,
  {063568a6-2d9c-4de2-b880-b35aa8944d0c}, !- Handle
  Plant Loop 1 AvailabilityManagerAssignmentList; !- Name

OS:Sizing:Plant,
  {61b77c66-c45c-484f-ab8d-1e05cfed99a9}, !- Handle
  {c883d7e1-2417-43c3-8d2a-724434125285}, !- Plant or Condenser Loop Name
  Heating,                                !- Loop Type
  71.1111111111111,                       !- Design Loop Exit Temperature {C}
  16.6666666666667,                       !- Loop Design Temperature Difference {deltaC}
  NonCoincident,                          !- Sizing Option
  1,                                      !- Zone Timesteps in Averaging Window
  None;                                   !- Coincident Sizing Factor Mode

