
OS:Version,
  {6e6826cb-f636-4b9a-868d-8666eb555534}, !- Handle
  2.4.0;                                  !- Version Identifier

! TrackingID:#[24chO2]
OS:AirLoopHVAC,
  {8612e1d2-8ce0-4047-9ae9-0529ae571182}, !- Handle
  Air Loop HVAC 1,                        !- Name
  ,                                       !- Controller List Name
  {75b8bbf9-da8f-4e4d-affe-289b7d04c082}, !- Availability Schedule
  {95908958-141f-4c08-8dd9-baaf2daf28c6}, !- Availability Manager List Name
  AutoSize,                               !- Design Supply Air Flow Rate {m3/s}
  ,                                       !- Branch List Name
  ,                                       !- Connector List Name
  {c16dfa08-bcd4-41bd-ba1c-4df583ef2316}, !- Supply Side Inlet Node Name
  {93be0c7b-69c3-4bee-8c20-48c64bc9b99c}, !- Demand Side Outlet Node Name
  {ad265a23-632a-4666-853b-51c60cddb532}, !- Demand Side Inlet Node A
  {fd018add-cd2f-48e6-84c3-09270010a2b2}, !- Supply Side Outlet Node A
  ,                                       !- Demand Side Inlet Node B
  ,                                       !- Supply Side Outlet Node B
  ,                                       !- Return Air Bypass Flow Temperature Setpoint Schedule Name
  {2533a1eb-619d-4209-85dd-7352ab1288da}, !- Demand Mixer Name
  {dd5b5b40-5f17-484d-a181-6757717795ff}, !- Demand Splitter A Name
  ,                                       !- Demand Splitter B Name
  ;                                       !- Supply Splitter Name

OS:Node,
  {ee60b64a-80ce-4178-9b60-9cedb1c719a6}, !- Handle
  Node 1,                                 !- Name
  {c16dfa08-bcd4-41bd-ba1c-4df583ef2316}, !- Inlet Port
  {1fcd8b03-327e-42f1-a599-5e2f08234a04}; !- Outlet Port

OS:Node,
  {54d81ae0-a51f-48e9-95b1-7a96c9bd0592}, !- Handle
  Node 2,                                 !- Name
  {82a39069-d3c5-49d6-b098-94322f5f09c2}, !- Inlet Port
  {fd018add-cd2f-48e6-84c3-09270010a2b2}; !- Outlet Port

OS:Connection,
  {c16dfa08-bcd4-41bd-ba1c-4df583ef2316}, !- Handle
  {b5468572-f72a-47e1-aa8e-4b37a2f0fd92}, !- Name
  {8612e1d2-8ce0-4047-9ae9-0529ae571182}, !- Source Object
  8,                                      !- Outlet Port
  {ee60b64a-80ce-4178-9b60-9cedb1c719a6}, !- Target Object
  2;                                      !- Inlet Port

OS:Connection,
  {fd018add-cd2f-48e6-84c3-09270010a2b2}, !- Handle
  {7ea4cf1f-51f5-4e18-8583-910a78b0d38c}, !- Name
  {54d81ae0-a51f-48e9-95b1-7a96c9bd0592}, !- Source Object
  3,                                      !- Outlet Port
  {8612e1d2-8ce0-4047-9ae9-0529ae571182}, !- Target Object
  11;                                     !- Inlet Port

OS:Node,
  {580b0940-eddb-4642-b484-39d8940b2b43}, !- Handle
  Node 3,                                 !- Name
  {ad265a23-632a-4666-853b-51c60cddb532}, !- Inlet Port
  {3af30ebc-be63-4f60-8374-6f6cca4263fe}; !- Outlet Port

OS:Node,
  {d343ce1a-f71c-47b9-a854-54dd78a30213}, !- Handle
  Node 4,                                 !- Name
  {381a0d4f-ecf1-49a1-823b-46864355c683}, !- Inlet Port
  {93be0c7b-69c3-4bee-8c20-48c64bc9b99c}; !- Outlet Port

OS:Node,
  {bb0ff94e-4266-4f3e-b6f6-648cf23b1786}, !- Handle
  Node 5,                                 !- Name
  {88f91d29-0ee5-4f50-b221-aac9cd3adf71}, !- Inlet Port
  {795fb116-ef4f-4a93-a7bf-47fa87c8f115}; !- Outlet Port

OS:Connection,
  {ad265a23-632a-4666-853b-51c60cddb532}, !- Handle
  {ebe7a90f-7a74-4f4d-9e36-20f8233bf052}, !- Name
  {8612e1d2-8ce0-4047-9ae9-0529ae571182}, !- Source Object
  10,                                     !- Outlet Port
  {580b0940-eddb-4642-b484-39d8940b2b43}, !- Target Object
  2;                                      !- Inlet Port

OS:Connection,
  {93be0c7b-69c3-4bee-8c20-48c64bc9b99c}, !- Handle
  {6189557f-e057-4db7-95c3-9494fe64f636}, !- Name
  {d343ce1a-f71c-47b9-a854-54dd78a30213}, !- Source Object
  3,                                      !- Outlet Port
  {8612e1d2-8ce0-4047-9ae9-0529ae571182}, !- Target Object
  9;                                      !- Inlet Port

OS:AirLoopHVAC:ZoneSplitter,
  {dd5b5b40-5f17-484d-a181-6757717795ff}, !- Handle
  Air Loop HVAC Zone Splitter 1,          !- Name
  {3af30ebc-be63-4f60-8374-6f6cca4263fe}, !- Inlet Node Name
  {e75b7237-ee85-4721-bc98-adba1737418c}, !- Outlet Node Name 1
  {a1c4d531-6da0-4312-94de-17aafeb30719}; !- Outlet Node Name 2

OS:AirLoopHVAC:ZoneMixer,
  {2533a1eb-619d-4209-85dd-7352ab1288da}, !- Handle
  Air Loop HVAC Zone Mixer 1,             !- Name
  {381a0d4f-ecf1-49a1-823b-46864355c683}, !- Outlet Node Name
  {bce49583-19d7-4b94-b94b-9dc64a03ff51}, !- Inlet Node Name 1
  {60692f01-d1e5-4af1-863b-92aba9830a08}; !- Inlet Node Name 2

OS:Connection,
  {3af30ebc-be63-4f60-8374-6f6cca4263fe}, !- Handle
  {353eb4b2-65eb-42c4-948e-30bd568c0741}, !- Name
  {580b0940-eddb-4642-b484-39d8940b2b43}, !- Source Object
  3,                                      !- Outlet Port
  {dd5b5b40-5f17-484d-a181-6757717795ff}, !- Target Object
  2;                                      !- Inlet Port

OS:Connection,
  {381a0d4f-ecf1-49a1-823b-46864355c683}, !- Handle
  {6de63b45-a594-44d6-8efe-be764e568c6e}, !- Name
  {2533a1eb-619d-4209-85dd-7352ab1288da}, !- Source Object
  2,                                      !- Outlet Port
  {d343ce1a-f71c-47b9-a854-54dd78a30213}, !- Target Object
  2;                                      !- Inlet Port

OS:Sizing:System,
  {1db16d04-2dd9-4807-838d-c6306d77b49b}, !- Handle
  {8612e1d2-8ce0-4047-9ae9-0529ae571182}, !- AirLoop Name
  Sensible,                               !- Type of Load to Size On
  Autosize,                               !- Design Outdoor Air Flow Rate {m3/s}
  0.3,                                    !- Minimum System Air Flow Ratio
  7,                                      !- Preheat Design Temperature {C}
  0.008,                                  !- Preheat Design Humidity Ratio {kg-H2O/kg-Air}
  12.8,                                   !- Precool Design Temperature {C}
  0.008,                                  !- Precool Design Humidity Ratio {kg-H2O/kg-Air}
  12.8,                                   !- Central Cooling Design Supply Air Temperature {C}
  16.7,                                   !- Central Heating Design Supply Air Temperature {C}
  NonCoincident,                          !- Sizing Option
  Yes,                                    !- 100% Outdoor Air in Cooling
  Yes,                                    !- 100% Outdoor Air in Heating
  0.0085,                                 !- Central Cooling Design Supply Air Humidity Ratio {kg-H2O/kg-Air}
  0.008,                                  !- Central Heating Design Supply Air Humidity Ratio {kg-H2O/kg-Air}
  DesignDay,                              !- Cooling Design Air Flow Method
  0,                                      !- Cooling Design Air Flow Rate {m3/s}
  DesignDay,                              !- Heating Design Air Flow Method
  0,                                      !- Heating Design Air Flow Rate {m3/s}
  ZoneSum,                                !- System Outdoor Air Method
  1,                                      !- Zone Maximum Outdoor Air Fraction {dimensionless}
  0.0099676501,                           !- Cooling Supply Air Flow Rate Per Floor Area {m3/s-m2}
  1,                                      !- Cooling Fraction of Autosized Cooling Supply Air Flow Rate
  3.9475456e-005,                         !- Cooling Supply Air Flow Rate Per Unit Cooling Capacity {m3/s-W}
  0.0099676501,                           !- Heating Supply Air Flow Rate Per Floor Area {m3/s-m2}
  1,                                      !- Heating Fraction of Autosized Heating Supply Air Flow Rate
  1,                                      !- Heating Fraction of Autosized Cooling Supply Air Flow Rate
  3.1588213e-005,                         !- Heating Supply Air Flow Rate Per Unit Heating Capacity {m3/s-W}
  CoolingDesignCapacity,                  !- Cooling Design Capacity Method
  autosize,                               !- Cooling Design Capacity {W}
  234.7,                                  !- Cooling Design Capacity Per Floor Area {W/m2}
  1,                                      !- Fraction of Autosized Cooling Design Capacity
  HeatingDesignCapacity,                  !- Heating Design Capacity Method
  autosize,                               !- Heating Design Capacity {W}
  157,                                    !- Heating Design Capacity Per Floor Area {W/m2}
  1,                                      !- Fraction of Autosized Heating Design Capacity
  OnOff;                                  !- Central Cooling Capacity Control Method

OS:Schedule:Constant,
  {75b8bbf9-da8f-4e4d-affe-289b7d04c082}, !- Handle
  Always On Discrete,                     !- Name
  {d8b6ff7b-cd59-4226-95b8-a2ad67e75aff}, !- Schedule Type Limits Name
  1;                                      !- Value

OS:ScheduleTypeLimits,
  {d8b6ff7b-cd59-4226-95b8-a2ad67e75aff}, !- Handle
  OnOff,                                  !- Name
  0,                                      !- Lower Limit Value
  1,                                      !- Upper Limit Value
  Discrete,                               !- Numeric Type
  Availability;                           !- Unit Type

OS:AvailabilityManagerAssignmentList,
  {95908958-141f-4c08-8dd9-baaf2daf28c6}, !- Handle
  Air Loop HVAC 1 AvailabilityManagerAssignmentList; !- Name

! TrackingID:#[wF1QgJ]
OS:Fan:ConstantVolume,
  {e5ea2541-4071-4994-879f-592107019071}, !- Handle
  Fan Constant Volume 1,                  !- Name
  {75b8bbf9-da8f-4e4d-affe-289b7d04c082}, !- Availability Schedule Name
  ,                                       !- Fan Efficiency
  ,                                       !- Pressure Rise {Pa}
  AutoSize,                               !- Maximum Flow Rate {m3/s}
  ,                                       !- Motor Efficiency
  ,                                       !- Motor In Airstream Fraction
  {1fcd8b03-327e-42f1-a599-5e2f08234a04}, !- Air Inlet Node Name
  {82a39069-d3c5-49d6-b098-94322f5f09c2}, !- Air Outlet Node Name
  ;                                       !- End-Use Subcategory

OS:Connection,
  {1fcd8b03-327e-42f1-a599-5e2f08234a04}, !- Handle
  {0ddf1106-3d8c-4f77-8f6b-406a7d6bbc89}, !- Name
  {ee60b64a-80ce-4178-9b60-9cedb1c719a6}, !- Source Object
  3,                                      !- Outlet Port
  {e5ea2541-4071-4994-879f-592107019071}, !- Target Object
  8;                                      !- Inlet Port

OS:Connection,
  {82a39069-d3c5-49d6-b098-94322f5f09c2}, !- Handle
  {820967a1-6520-4a34-882a-04257fb2376b}, !- Name
  {e5ea2541-4071-4994-879f-592107019071}, !- Source Object
  9,                                      !- Outlet Port
  {54d81ae0-a51f-48e9-95b1-7a96c9bd0592}, !- Target Object
  2;                                      !- Inlet Port

! TrackingID:#[yOYgSh]
OS:ThermalZone,
  {6327fc20-28b4-43f1-aa68-8893db685fe9}, !- Handle
  Thermal Zone 1,                         !- Name
  ,                                       !- Multiplier
  ,                                       !- Ceiling Height {m}
  ,                                       !- Volume {m3}
  ,                                       !- Floor Area {m2}
  ,                                       !- Zone Inside Convection Algorithm
  ,                                       !- Zone Outside Convection Algorithm
  ,                                       !- Zone Conditioning Equipment List Name
  {a36f387d-99c8-49c9-8054-8859f9ee63fc}, !- Zone Air Inlet Port List
  {9405a90b-1d53-4072-92e2-401a31aa13af}, !- Zone Air Exhaust Port List
  {0f297a6a-52b9-424f-a590-93afe86f4a4c}, !- Zone Air Node Name
  {43d3df7d-e16b-455f-83f9-8c43dbdf267a}, !- Zone Return Air Node Name
  ,                                       !- Primary Daylighting Control Name
  ,                                       !- Fraction of Zone Controlled by Primary Daylighting Control
  ,                                       !- Secondary Daylighting Control Name
  ,                                       !- Fraction of Zone Controlled by Secondary Daylighting Control
  ,                                       !- Illuminance Map Name
  ,                                       !- Group Rendering Name
  ,                                       !- Thermostat Name
  No;                                     !- Use Ideal Air Loads

OS:Node,
  {fee178ff-4637-4912-838e-d04af8ec2af7}, !- Handle
  Node 6,                                 !- Name
  {0f297a6a-52b9-424f-a590-93afe86f4a4c}, !- Inlet Port
  ;                                       !- Outlet Port

OS:Connection,
  {0f297a6a-52b9-424f-a590-93afe86f4a4c}, !- Handle
  {8899ddf6-ebc3-4d3b-9937-72d897c9df83}, !- Name
  {6327fc20-28b4-43f1-aa68-8893db685fe9}, !- Source Object
  11,                                     !- Outlet Port
  {fee178ff-4637-4912-838e-d04af8ec2af7}, !- Target Object
  2;                                      !- Inlet Port

OS:PortList,
  {a36f387d-99c8-49c9-8054-8859f9ee63fc}, !- Handle
  {5962c7a5-6d6a-421f-9293-6e9e1857cedc}, !- Name
  {6327fc20-28b4-43f1-aa68-8893db685fe9}, !- HVAC Component
  {795fb116-ef4f-4a93-a7bf-47fa87c8f115}; !- Port 1

OS:PortList,
  {9405a90b-1d53-4072-92e2-401a31aa13af}, !- Handle
  {7d828091-fda4-4824-9429-209cf50b70b0}, !- Name
  {6327fc20-28b4-43f1-aa68-8893db685fe9}; !- HVAC Component

OS:Sizing:Zone,
  {d85f959e-93bd-414e-a32d-2e4dabc6e9ba}, !- Handle
  {6327fc20-28b4-43f1-aa68-8893db685fe9}, !- Zone or ZoneList Name
  SupplyAirTemperature,                   !- Zone Cooling Design Supply Air Temperature Input Method
  14,                                     !- Zone Cooling Design Supply Air Temperature {C}
  11.11,                                  !- Zone Cooling Design Supply Air Temperature Difference {deltaC}
  SupplyAirTemperature,                   !- Zone Heating Design Supply Air Temperature Input Method
  40,                                     !- Zone Heating Design Supply Air Temperature {C}
  11.11,                                  !- Zone Heating Design Supply Air Temperature Difference {deltaC}
  0.0085,                                 !- Zone Cooling Design Supply Air Humidity Ratio {kg-H2O/kg-air}
  0.008,                                  !- Zone Heating Design Supply Air Humidity Ratio {kg-H2O/kg-air}
  ,                                       !- Zone Heating Sizing Factor
  ,                                       !- Zone Cooling Sizing Factor
  DesignDay,                              !- Cooling Design Air Flow Method
  ,                                       !- Cooling Design Air Flow Rate {m3/s}
  ,                                       !- Cooling Minimum Air Flow per Zone Floor Area {m3/s-m2}
  ,                                       !- Cooling Minimum Air Flow {m3/s}
  ,                                       !- Cooling Minimum Air Flow Fraction
  DesignDay,                              !- Heating Design Air Flow Method
  ,                                       !- Heating Design Air Flow Rate {m3/s}
  ,                                       !- Heating Maximum Air Flow per Zone Floor Area {m3/s-m2}
  ,                                       !- Heating Maximum Air Flow {m3/s}
  ,                                       !- Heating Maximum Air Flow Fraction
  ,                                       !- Design Zone Air Distribution Effectiveness in Cooling Mode
  ,                                       !- Design Zone Air Distribution Effectiveness in Heating Mode
  No,                                     !- Account for Dedicated Outdoor Air System
  NeutralSupplyAir,                       !- Dedicated Outdoor Air System Control Strategy
  autosize,                               !- Dedicated Outdoor Air Low Setpoint Temperature for Design {C}
  autosize;                               !- Dedicated Outdoor Air High Setpoint Temperature for Design {C}

OS:ZoneHVAC:EquipmentList,
  {aed43929-9bbb-440b-9428-ea9827761881}, !- Handle
  Zone HVAC Equipment List 1,             !- Name
  {6327fc20-28b4-43f1-aa68-8893db685fe9}, !- Thermal Zone
  {3b426e17-43a3-4bd5-86f3-022a0eb86a33}, !- Zone Equipment 1
  1,                                      !- Zone Equipment Cooling Sequence 1
  1;                                      !- Zone Equipment Heating or No-Load Sequence 1

! TrackingID:#[rIjdC6]
OS:Sizing:Zone,
  {ac91f924-084c-4585-a822-938673a022a6}, !- Handle
  {6327fc20-28b4-43f1-aa68-8893db685fe9}, !- Zone or ZoneList Name
  SupplyAirTemperature,                   !- Zone Cooling Design Supply Air Temperature Input Method
  14,                                     !- Zone Cooling Design Supply Air Temperature {C}
  11.11,                                  !- Zone Cooling Design Supply Air Temperature Difference {deltaC}
  SupplyAirTemperature,                   !- Zone Heating Design Supply Air Temperature Input Method
  40,                                     !- Zone Heating Design Supply Air Temperature {C}
  11.11,                                  !- Zone Heating Design Supply Air Temperature Difference {deltaC}
  0.0085,                                 !- Zone Cooling Design Supply Air Humidity Ratio {kg-H2O/kg-air}
  0.008,                                  !- Zone Heating Design Supply Air Humidity Ratio {kg-H2O/kg-air}
  ,                                       !- Zone Heating Sizing Factor
  ,                                       !- Zone Cooling Sizing Factor
  DesignDay,                              !- Cooling Design Air Flow Method
  ,                                       !- Cooling Design Air Flow Rate {m3/s}
  ,                                       !- Cooling Minimum Air Flow per Zone Floor Area {m3/s-m2}
  ,                                       !- Cooling Minimum Air Flow {m3/s}
  ,                                       !- Cooling Minimum Air Flow Fraction
  DesignDay,                              !- Heating Design Air Flow Method
  ,                                       !- Heating Design Air Flow Rate {m3/s}
  ,                                       !- Heating Maximum Air Flow per Zone Floor Area {m3/s-m2}
  ,                                       !- Heating Maximum Air Flow {m3/s}
  ,                                       !- Heating Maximum Air Flow Fraction
  ,                                       !- Design Zone Air Distribution Effectiveness in Cooling Mode
  ,                                       !- Design Zone Air Distribution Effectiveness in Heating Mode
  No,                                     !- Account for Dedicated Outdoor Air System
  NeutralSupplyAir,                       !- Dedicated Outdoor Air System Control Strategy
  autosize,                               !- Dedicated Outdoor Air Low Setpoint Temperature for Design {C}
  autosize;                               !- Dedicated Outdoor Air High Setpoint Temperature for Design {C}

! TrackingID:#[WFhA3U]
OS:Coil:Heating:Water,
  {8f28272c-20cb-4131-a87b-122ad4894fd1}, !- Handle
  Coil Heating Water 1,                   !- Name
  {75b8bbf9-da8f-4e4d-affe-289b7d04c082}, !- Availability Schedule Name
  ,                                       !- U-Factor Times Area Value {W/K}
  ,                                       !- Maximum Water Flow Rate {m3/s}
  {f2ce3f50-2a77-4206-8e27-531374147ad9}, !- Water Inlet Node Name
  {0f20e384-d8e7-41dc-9d92-facb91457e8c}, !- Water Outlet Node Name
  ,                                       !- Air Inlet Node Name
  ,                                       !- Air Outlet Node Name
  ,                                       !- Performance Input Method
  ,                                       !- Rated Capacity {W}
  ,                                       !- Rated Inlet Water Temperature {C}
  15.6,                                   !- Rated Inlet Air Temperature {C}
  ,                                       !- Rated Outlet Water Temperature {C}
  ,                                       !- Rated Outlet Air Temperature {C}
  ;                                       !- Rated Ratio for Air and Water Convection

! TrackingID:#[vvnTRB]
OS:AirTerminal:SingleDuct:VAV:Reheat,
  {3b426e17-43a3-4bd5-86f3-022a0eb86a33}, !- Handle
  Air Terminal Single Duct VAV Reheat 1,  !- Name
  {75b8bbf9-da8f-4e4d-affe-289b7d04c082}, !- Availability Schedule Name
  {d4556bba-6ff2-45b0-b80d-c4a8d6dcf507}, !- Air Inlet Node Name
  AutoSize,                               !- Maximum Air Flow Rate {m3/s}
  Constant,                               !- Zone Minimum Air Flow Input Method
  0.3,                                    !- Constant Minimum Air Flow Fraction
  0,                                      !- Fixed Minimum Air Flow Rate {m3/s}
  ,                                       !- Minimum Air Flow Fraction Schedule Name
  {8f28272c-20cb-4131-a87b-122ad4894fd1}, !- Reheat Coil Name
  AutoSize,                               !- Maximum Hot Water or Steam Flow Rate {m3/s}
  0,                                      !- Minimum Hot Water or Steam Flow Rate {m3/s}
  {88f91d29-0ee5-4f50-b221-aac9cd3adf71}, !- Air Outlet Node Name
  0.001,                                  !- Convergence Tolerance
  Normal,                                 !- Damper Heating Action
  AutoSize,                               !- Maximum Flow per Zone Floor Area During Reheat {m3/s-m2}
  AutoSize,                               !- Maximum Flow Fraction During Reheat
  35,                                     !- Maximum Reheat Air Temperature {C}
  No;                                     !- Control For Outdoor Air

OS:Node,
  {9ac44a01-861e-4f5e-bb15-ef695f6fd482}, !- Handle
  Node 7,                                 !- Name
  {43d3df7d-e16b-455f-83f9-8c43dbdf267a}, !- Inlet Port
  {bce49583-19d7-4b94-b94b-9dc64a03ff51}; !- Outlet Port

OS:Connection,
  {795fb116-ef4f-4a93-a7bf-47fa87c8f115}, !- Handle
  {5c02faf8-145d-4d8e-92ff-5b9bc1a12361}, !- Name
  {bb0ff94e-4266-4f3e-b6f6-648cf23b1786}, !- Source Object
  3,                                      !- Outlet Port
  {a36f387d-99c8-49c9-8054-8859f9ee63fc}, !- Target Object
  3;                                      !- Inlet Port

OS:Connection,
  {43d3df7d-e16b-455f-83f9-8c43dbdf267a}, !- Handle
  {047bdbda-be79-4081-9d85-573a9ccb9886}, !- Name
  {6327fc20-28b4-43f1-aa68-8893db685fe9}, !- Source Object
  12,                                     !- Outlet Port
  {9ac44a01-861e-4f5e-bb15-ef695f6fd482}, !- Target Object
  2;                                      !- Inlet Port

OS:Connection,
  {bce49583-19d7-4b94-b94b-9dc64a03ff51}, !- Handle
  {3226b2ce-57b4-4781-ba31-936b12d72180}, !- Name
  {9ac44a01-861e-4f5e-bb15-ef695f6fd482}, !- Source Object
  3,                                      !- Outlet Port
  {2533a1eb-619d-4209-85dd-7352ab1288da}, !- Target Object
  3;                                      !- Inlet Port

OS:Node,
  {55d715f8-ff1e-4920-a157-8a110cccda8b}, !- Handle
  Node 8,                                 !- Name
  {e75b7237-ee85-4721-bc98-adba1737418c}, !- Inlet Port
  {d4556bba-6ff2-45b0-b80d-c4a8d6dcf507}; !- Outlet Port

OS:Connection,
  {e75b7237-ee85-4721-bc98-adba1737418c}, !- Handle
  {554c0b95-2243-4a65-8e43-ac2b3426c98a}, !- Name
  {dd5b5b40-5f17-484d-a181-6757717795ff}, !- Source Object
  3,                                      !- Outlet Port
  {55d715f8-ff1e-4920-a157-8a110cccda8b}, !- Target Object
  2;                                      !- Inlet Port

OS:Connection,
  {d4556bba-6ff2-45b0-b80d-c4a8d6dcf507}, !- Handle
  {9605dffe-1f46-4cfa-85cf-ff473be9c305}, !- Name
  {55d715f8-ff1e-4920-a157-8a110cccda8b}, !- Source Object
  3,                                      !- Outlet Port
  {3b426e17-43a3-4bd5-86f3-022a0eb86a33}, !- Target Object
  3;                                      !- Inlet Port

OS:Connection,
  {88f91d29-0ee5-4f50-b221-aac9cd3adf71}, !- Handle
  {942de6fe-c393-482b-857b-327684f36eee}, !- Name
  {3b426e17-43a3-4bd5-86f3-022a0eb86a33}, !- Source Object
  12,                                     !- Outlet Port
  {bb0ff94e-4266-4f3e-b6f6-648cf23b1786}, !- Target Object
  2;                                      !- Inlet Port

! TrackingID:#[KZ9c6T]
OS:ThermalZone,
  {079b1ad0-f5b0-4feb-aea0-a5394bf94e87}, !- Handle
  Thermal Zone 2,                         !- Name
  ,                                       !- Multiplier
  ,                                       !- Ceiling Height {m}
  ,                                       !- Volume {m3}
  ,                                       !- Floor Area {m2}
  ,                                       !- Zone Inside Convection Algorithm
  ,                                       !- Zone Outside Convection Algorithm
  ,                                       !- Zone Conditioning Equipment List Name
  {e223039b-dc54-4622-bf93-b7a2ba348594}, !- Zone Air Inlet Port List
  {3efebddb-5c18-4ee7-a7c4-0d91ebf17931}, !- Zone Air Exhaust Port List
  {6baa29db-6224-416c-aa0b-c2158664777c}, !- Zone Air Node Name
  {f72c96f1-9b5b-455a-a35a-7223fc1695c6}, !- Zone Return Air Node Name
  ,                                       !- Primary Daylighting Control Name
  ,                                       !- Fraction of Zone Controlled by Primary Daylighting Control
  ,                                       !- Secondary Daylighting Control Name
  ,                                       !- Fraction of Zone Controlled by Secondary Daylighting Control
  ,                                       !- Illuminance Map Name
  ,                                       !- Group Rendering Name
  ,                                       !- Thermostat Name
  No;                                     !- Use Ideal Air Loads

OS:Node,
  {a98b4961-08a8-4b77-9f25-e7530d20a610}, !- Handle
  Node 9,                                 !- Name
  {6baa29db-6224-416c-aa0b-c2158664777c}, !- Inlet Port
  ;                                       !- Outlet Port

OS:Connection,
  {6baa29db-6224-416c-aa0b-c2158664777c}, !- Handle
  {0ea8d454-2262-44ea-8b3a-862943bab6e1}, !- Name
  {079b1ad0-f5b0-4feb-aea0-a5394bf94e87}, !- Source Object
  11,                                     !- Outlet Port
  {a98b4961-08a8-4b77-9f25-e7530d20a610}, !- Target Object
  2;                                      !- Inlet Port

OS:PortList,
  {e223039b-dc54-4622-bf93-b7a2ba348594}, !- Handle
  {a11415f7-3397-420f-86fc-52303886c2ad}, !- Name
  {079b1ad0-f5b0-4feb-aea0-a5394bf94e87}, !- HVAC Component
  {f2c14d2f-2f75-47b1-a47b-f316f7f638af}; !- Port 1

OS:PortList,
  {3efebddb-5c18-4ee7-a7c4-0d91ebf17931}, !- Handle
  {ac81e7e6-a16e-422b-a511-23141508fc51}, !- Name
  {079b1ad0-f5b0-4feb-aea0-a5394bf94e87}; !- HVAC Component

OS:Sizing:Zone,
  {d6cd1b3e-bcb0-4fb1-9ec0-b7eab732544b}, !- Handle
  {079b1ad0-f5b0-4feb-aea0-a5394bf94e87}, !- Zone or ZoneList Name
  SupplyAirTemperature,                   !- Zone Cooling Design Supply Air Temperature Input Method
  14,                                     !- Zone Cooling Design Supply Air Temperature {C}
  11.11,                                  !- Zone Cooling Design Supply Air Temperature Difference {deltaC}
  SupplyAirTemperature,                   !- Zone Heating Design Supply Air Temperature Input Method
  40,                                     !- Zone Heating Design Supply Air Temperature {C}
  11.11,                                  !- Zone Heating Design Supply Air Temperature Difference {deltaC}
  0.0085,                                 !- Zone Cooling Design Supply Air Humidity Ratio {kg-H2O/kg-air}
  0.008,                                  !- Zone Heating Design Supply Air Humidity Ratio {kg-H2O/kg-air}
  ,                                       !- Zone Heating Sizing Factor
  ,                                       !- Zone Cooling Sizing Factor
  DesignDay,                              !- Cooling Design Air Flow Method
  ,                                       !- Cooling Design Air Flow Rate {m3/s}
  ,                                       !- Cooling Minimum Air Flow per Zone Floor Area {m3/s-m2}
  ,                                       !- Cooling Minimum Air Flow {m3/s}
  ,                                       !- Cooling Minimum Air Flow Fraction
  DesignDay,                              !- Heating Design Air Flow Method
  ,                                       !- Heating Design Air Flow Rate {m3/s}
  ,                                       !- Heating Maximum Air Flow per Zone Floor Area {m3/s-m2}
  ,                                       !- Heating Maximum Air Flow {m3/s}
  ,                                       !- Heating Maximum Air Flow Fraction
  ,                                       !- Design Zone Air Distribution Effectiveness in Cooling Mode
  ,                                       !- Design Zone Air Distribution Effectiveness in Heating Mode
  No,                                     !- Account for Dedicated Outdoor Air System
  NeutralSupplyAir,                       !- Dedicated Outdoor Air System Control Strategy
  autosize,                               !- Dedicated Outdoor Air Low Setpoint Temperature for Design {C}
  autosize;                               !- Dedicated Outdoor Air High Setpoint Temperature for Design {C}

OS:ZoneHVAC:EquipmentList,
  {56a3e97d-a030-44f1-a73c-ebef04ad662f}, !- Handle
  Zone HVAC Equipment List 2,             !- Name
  {079b1ad0-f5b0-4feb-aea0-a5394bf94e87}, !- Thermal Zone
  {2e53883f-2284-48c8-9e59-de47da6c472e}, !- Zone Equipment 1
  1,                                      !- Zone Equipment Cooling Sequence 1
  1;                                      !- Zone Equipment Heating or No-Load Sequence 1

! TrackingID:#[aOkzT3]
OS:Sizing:Zone,
  {28af69c8-905d-46db-a1db-a16ce7c61b66}, !- Handle
  {079b1ad0-f5b0-4feb-aea0-a5394bf94e87}, !- Zone or ZoneList Name
  SupplyAirTemperature,                   !- Zone Cooling Design Supply Air Temperature Input Method
  14,                                     !- Zone Cooling Design Supply Air Temperature {C}
  11.11,                                  !- Zone Cooling Design Supply Air Temperature Difference {deltaC}
  SupplyAirTemperature,                   !- Zone Heating Design Supply Air Temperature Input Method