
OS:Version,
  {54ba59c0-da3e-4770-bbb5-6626962e14aa}, !- Handle
  2.4.0;                                  !- Version Identifier

OS:Site,
  {05434a70-62c7-4503-8c48-b541842c670a}, !- Handle
  Site 1,                                 !- Name
  ,                                       !- Latitude {deg}
  ,                                       !- Longitude {deg}
  ,                                       !- Time Zone {hr}
  ,                                       !- Elevation {m}
  ;                                       !- Terrain

OS:YearDescription,
  {eeb90ec8-73ea-4ede-a080-cfdfb7e9c631}; !- Handle

OS:ClimateZones,
  {ed5ef348-ff69-4d27-a05b-e41e88caa7cb}, !- Handle
  ,                                       !- Active Institution
  ,                                       !- Active Year
  ,                                       !- Climate Zone Institution Name 1
  ,                                       !- Climate Zone Document Name 1
  ,                                       !- Climate Zone Document Year 1
  ,                                       !- Climate Zone Value 1
  CEC,                                    !- Climate Zone Institution Name 2
  California Climate Zone Descriptions,   !- Climate Zone Document Name 2
  1995,                                   !- Climate Zone Document Year 2
  ;                                       !- Climate Zone Value 2

OS:Building,
  {b8cf50c0-3e97-426a-ba79-cd88094c77a7}, !- Handle
  Building 1,                             !- Name
  ,                                       !- Building Sector Type
  ,                                       !- North Axis {deg}
  ,                                       !- Nominal Floor to Floor Height {m}
  ,                                       !- Space Type Name
  ,                                       !- Default Construction Set Name
  ;                                       !- Default Schedule Set Name

OS:Facility,
  {1d179c43-e4f0-4e1d-8425-b684445b13ec}; !- Handle

OS:SimulationControl,
  {2f9ec432-9d60-4970-9c33-fd7721e93bb5}; !- Handle

OS:Sizing:Parameters,
  {df7e76a6-f899-4e5d-aa7f-14c9514bc240}, !- Handle
  1.25,                                   !- Heating Sizing Factor
  1.15;                                   !- Cooling Sizing Factor

OS:Timestep,
  {875f92db-3925-41cd-88f0-653912d7d558}, !- Handle
  6;                                      !- Number of Timesteps per Hour

OS:ShadowCalculation,
  {4caa93f5-5e24-45ca-ab7b-b87bb9051f83}, !- Handle
  20,                                     !- Calculation Frequency
  15000;                                  !- Maximum Figures in Shadow Overlap Calculations

OS:HeatBalanceAlgorithm,
  {643096b3-5938-4c49-b35e-ccf434c56d5f}, !- Handle
  ConductionTransferFunction,             !- Algorithm
  200;                                    !- Surface Temperature Upper Limit {C}

OS:RunPeriod,
  {7fd01dbe-5dec-410e-b008-32ffb319efa8}, !- Handle
  Run Period 1,                           !- Name
  1,                                      !- Begin Month
  1,                                      !- Begin Day of Month
  12,                                     !- End Month
  31,                                     !- End Day of Month
  ,                                       !- Use Weather File Holidays and Special Days
  ,                                       !- Use Weather File Daylight Saving Period
  ,                                       !- Apply Weekend Holiday Rule
  ,                                       !- Use Weather File Rain Indicators
  ,                                       !- Use Weather File Snow Indicators
  ;                                       !- Number of Times Runperiod to be Repeated

OS:LifeCycleCost:Parameters,
  {ebe5a6d1-7b0d-400d-976d-638e1cc9a5fe}, !- Handle
  ,                                       !- Analysis Type
  ,                                       !- Discounting Convention
  ,                                       !- Inflation Approach
  ,                                       !- Real Discount Rate
  ,                                       !- Nominal Discount Rate
  ,                                       !- Inflation
  ,                                       !- Base Date Month
  ,                                       !- Base Date Year
  ,                                       !- Service Date Month
  ,                                       !- Service Date Year
  ;                                       !- Length of Study Period in Years

OS:AirLoopHVAC,
  {78673948-b317-4af4-9231-23364cf4bd2b}, !- Handle
  _VAV with Reheat,                       !- Name
  ,                                       !- Controller List Name
  {10c74c8f-61c3-4b97-9792-794c244fec27}, !- Availability Schedule
  {e2569714-afcb-49a9-b5ff-6bf850cae936}, !- Availability Manager List Name
  AutoSize,                               !- Design Supply Air Flow Rate {m3/s}
  ,                                       !- Branch List Name
  ,                                       !- Connector List Name
  {01fef880-7bd3-4729-9188-5e6342929790}, !- Supply Side Inlet Node Name
  {f42f555a-6bfd-4dc9-8fe6-d31a33d28227}, !- Demand Side Outlet Node Name
  {fad9baee-f4f7-4b7c-bc7e-3b186059ea96}, !- Demand Side Inlet Node A
  {38103a54-0e17-4151-ad63-e6163d327958}, !- Supply Side Outlet Node A
  ,                                       !- Demand Side Inlet Node B
  ,                                       !- Supply Side Outlet Node B
  ,                                       !- Return Air Bypass Flow Temperature Setpoint Schedule Name
  {57d8d44f-47a8-4561-b252-2b68ca81f0db}, !- Demand Mixer Name
  {860b2505-0238-40d9-82da-ccbcd15c7136}, !- Demand Splitter A Name
  ,                                       !- Demand Splitter B Name
  ;                                       !- Supply Splitter Name

OS:Node,
  {ecfb4acd-ed91-40c6-b917-dcf661de2934}, !- Handle
  Node 1,                                 !- Name
  {01fef880-7bd3-4729-9188-5e6342929790}, !- Inlet Port
  {950c676c-888a-4690-9611-9ed324f42f66}; !- Outlet Port

OS:Node,
  {1e7dafb0-a974-4928-8e0e-94e0c1eade18}, !- Handle
  Node 2,                                 !- Name
  {f69cbe22-5ad9-4e70-8259-144cbc9d3f18}, !- Inlet Port
  {38103a54-0e17-4151-ad63-e6163d327958}; !- Outlet Port

OS:Connection,
  {01fef880-7bd3-4729-9188-5e6342929790}, !- Handle
  {d97cabde-67a0-4a57-ba0e-4f4995356c9c}, !- Name
  {78673948-b317-4af4-9231-23364cf4bd2b}, !- Source Object
  8,                                      !- Outlet Port
  {ecfb4acd-ed91-40c6-b917-dcf661de2934}, !- Target Object
  2;                                      !- Inlet Port

OS:Connection,
  {38103a54-0e17-4151-ad63-e6163d327958}, !- Handle
  {426f2400-890f-4408-93f4-ed650272c6ae}, !- Name
  {1e7dafb0-a974-4928-8e0e-94e0c1eade18}, !- Source Object
  3,                                      !- Outlet Port
  {78673948-b317-4af4-9231-23364cf4bd2b}, !- Target Object
  11;                                     !- Inlet Port

OS:Node,
  {8996c8d2-bc4e-4145-9455-bbce220306ef}, !- Handle
  Node 3,                                 !- Name
  {fad9baee-f4f7-4b7c-bc7e-3b186059ea96}, !- Inlet Port
  {c4cda88a-5554-4039-b36f-2ac4260c39fc}; !- Outlet Port

OS:Node,
  {9152e8ee-9ee5-453c-a371-3bb5a2592e31}, !- Handle
  Node 4,                                 !- Name
  {c73ff6f6-bd2a-412a-bbf0-868fcce6c217}, !- Inlet Port
  {f42f555a-6bfd-4dc9-8fe6-d31a33d28227}; !- Outlet Port

OS:Node,
  {43099b22-a45d-4dbf-8bb3-0e109acc0004}, !- Handle
  Node 5,                                 !- Name
  {044b4a64-a60b-4ea8-830d-3318718295c5}, !- Inlet Port
  {a693866c-f367-4aad-a566-8dceb632dbc7}; !- Outlet Port

OS:Connection,
  {fad9baee-f4f7-4b7c-bc7e-3b186059ea96}, !- Handle
  {24b10745-0517-4763-903c-2c0787c502f6}, !- Name
  {78673948-b317-4af4-9231-23364cf4bd2b}, !- Source Object
  10,                                     !- Outlet Port
  {8996c8d2-bc4e-4145-9455-bbce220306ef}, !- Target Object
  2;                                      !- Inlet Port

OS:Connection,
  {f42f555a-6bfd-4dc9-8fe6-d31a33d28227}, !- Handle
  {843c85ad-4f3b-47d7-bc95-3d57ec7c7ceb}, !- Name
  {9152e8ee-9ee5-453c-a371-3bb5a2592e31}, !- Source Object
  3,                                      !- Outlet Port
  {78673948-b317-4af4-9231-23364cf4bd2b}, !- Target Object
  9;                                      !- Inlet Port

OS:AirLoopHVAC:ZoneSplitter,
  {860b2505-0238-40d9-82da-ccbcd15c7136}, !- Handle
  Air Loop HVAC Zone Splitter 1,          !- Name
  {c4cda88a-5554-4039-b36f-2ac4260c39fc}, !- Inlet Node Name
  {044b4a64-a60b-4ea8-830d-3318718295c5}; !- Outlet Node Name 1

OS:AirLoopHVAC:ZoneMixer,
  {57d8d44f-47a8-4561-b252-2b68ca81f0db}, !- Handle
  Air Loop HVAC Zone Mixer 1,             !- Name
  {c73ff6f6-bd2a-412a-bbf0-868fcce6c217}, !- Outlet Node Name
  {a693866c-f367-4aad-a566-8dceb632dbc7}; !- Inlet Node Name 1

OS:Connection,
  {c4cda88a-5554-4039-b36f-2ac4260c39fc}, !- Handle
  {6353acb4-9786-46bb-92a1-f6ae7b0d31f6}, !- Name
  {8996c8d2-bc4e-4145-9455-bbce220306ef}, !- Source Object
  3,                                      !- Outlet Port
  {860b2505-0238-40d9-82da-ccbcd15c7136}, !- Target Object
  2;                                      !- Inlet Port

OS:Connection,
  {044b4a64-a60b-4ea8-830d-3318718295c5}, !- Handle
  {7da8c82d-1d49-4d04-bbe8-ea722902185e}, !- Name
  {860b2505-0238-40d9-82da-ccbcd15c7136}, !- Source Object
  3,                                      !- Outlet Port
  {43099b22-a45d-4dbf-8bb3-0e109acc0004}, !- Target Object
  2;                                      !- Inlet Port

OS:Connection,
  {a693866c-f367-4aad-a566-8dceb632dbc7}, !- Handle
  {dc1679fb-106f-4d06-ad78-ab93475df44c}, !- Name
  {43099b22-a45d-4dbf-8bb3-0e109acc0004}, !- Source Object
  3,                                      !- Outlet Port
  {57d8d44f-47a8-4561-b252-2b68ca81f0db}, !- Target Object
  3;                                      !- Inlet Port

OS:Connection,
  {c73ff6f6-bd2a-412a-bbf0-868fcce6c217}, !- Handle
  {1ec7b0e1-0752-462f-bf0f-3be8a055eace}, !- Name
  {57d8d44f-47a8-4561-b252-2b68ca81f0db}, !- Source Object
  2,                                      !- Outlet Port
  {9152e8ee-9ee5-453c-a371-3bb5a2592e31}, !- Target Object
  2;                                      !- Inlet Port

OS:Sizing:System,
  {359bd658-55a0-41d2-8e55-38b6f01040cf}, !- Handle
  {78673948-b317-4af4-9231-23364cf4bd2b}, !- AirLoop Name
  Sensible,                               !- Type of Load to Size On
  Autosize,                               !- Design Outdoor Air Flow Rate {m3/s}
  0.3,                                    !- Minimum System Air Flow Ratio
  7,                                      !- Preheat Design Temperature {C}
  0.008,                                  !- Preheat Design Humidity Ratio {kg-H2O/kg-Air}
  12.8,                                   !- Precool Design Temperature {C}
  0.008,                                  !- Precool Design Humidity Ratio {kg-H2O/kg-Air}
  12.8,                                   !- Central Cooling Design Supply Air Temperature {C}
  16.7,                                   !- Central Heating Design Supply Air Temperature {C}
  NonCoincident,                          !- Sizing Option
  Yes,                                    !- 100% Outdoor Air in Cooling
  Yes,                                    !- 100% Outdoor Air in Heating
  0.0085,                                 !- Central Cooling Design Supply Air Humidity Ratio {kg-H2O/kg-Air}
  0.008,                                  !- Central Heating Design Supply Air Humidity Ratio {kg-H2O/kg-Air}
  DesignDay,                              !- Cooling Design Air Flow Method
  0,                                      !- Cooling Design Air Flow Rate {m3/s}
  DesignDay,                              !- Heating Design Air Flow Method
  0,                                      !- Heating Design Air Flow Rate {m3/s}
  ZoneSum,                                !- System Outdoor Air Method
  1,                                      !- Zone Maximum Outdoor Air Fraction {dimensionless}
  0.0099676501,                           !- Cooling Supply Air Flow Rate Per Floor Area {m3/s-m2}
  1,                                      !- Cooling Fraction of Autosized Cooling Supply Air Flow Rate
  3.9475456e-005,                         !- Cooling Supply Air Flow Rate Per Unit Cooling Capacity {m3/s-W}
  0.0099676501,                           !- Heating Supply Air Flow Rate Per Floor Area {m3/s-m2}
  1,                                      !- Heating Fraction of Autosized Heating Supply Air Flow Rate
  1,                                      !- Heating Fraction of Autosized Cooling Supply Air Flow Rate
  3.1588213e-005,                         !- Heating Supply Air Flow Rate Per Unit Heating Capacity {m3/s-W}
  CoolingDesignCapacity,                  !- Cooling Design Capacity Method
  autosize,                               !- Cooling Design Capacity {W}
  234.7,                                  !- Cooling Design Capacity Per Floor Area {W/m2}
  1,                                      !- Fraction of Autosized Cooling Design Capacity
  HeatingDesignCapacity,                  !- Heating Design Capacity Method
  autosize,                               !- Heating Design Capacity {W}
  157,                                    !- Heating Design Capacity Per Floor Area {W/m2}
  1,                                      !- Fraction of Autosized Heating Design Capacity
  OnOff;                                  !- Central Cooling Capacity Control Method

OS:Schedule:Constant,
  {10c74c8f-61c3-4b97-9792-794c244fec27}, !- Handle
  Always On Discrete,                     !- Name
  {d293f6e8-646a-4e05-a733-98c1b34849b6}, !- Schedule Type Limits Name
  1;                                      !- Value

OS:ScheduleTypeLimits,
  {d293f6e8-646a-4e05-a733-98c1b34849b6}, !- Handle
  OnOff,                                  !- Name
  0,                                      !- Lower Limit Value
  1,                                      !- Upper Limit Value
  Discrete,                               !- Numeric Type
  Availability;                           !- Unit Type

OS:AvailabilityManagerAssignmentList,
  {e2569714-afcb-49a9-b5ff-6bf850cae936}, !- Handle
  Air Loop HVAC 1 AvailabilityManagerAssignmentList; !- Name

OS:AirLoopHVAC:OutdoorAirSystem,
  {f1e620df-9e31-4ae7-bb57-01d19a2a970d}, !- Handle
  OA System,                              !- Name
  {ea229a07-deea-49d9-a7c8-acc6963fdd20}, !- Controller Name
  ,                                       !- Outdoor Air Equipment List Name
  ,                                       !- Availability Manager List Name
  {3612103e-23ae-4c13-a133-f64ed8f35a25}, !- Mixed Air Node Name
  {a39ff07d-598f-49ab-8565-db1ca7eda2a1}, !- Outdoor Air Stream Node Name
  {8c5e94c2-c937-4b69-a39b-8b15ae55beda}, !- Relief Air Stream Node Name
  {950c676c-888a-4690-9611-9ed324f42f66}; !- Return Air Stream Node Name

OS:Controller:OutdoorAir,
  {ea229a07-deea-49d9-a7c8-acc6963fdd20}, !- Handle
  Outdoor Air Controller,                 !- Name
  ,                                       !- Relief Air Outlet Node Name
  ,                                       !- Return Air Node Name
  ,                                       !- Mixed Air Node Name
  ,                                       !- Actuator Node Name
  Autosize,                               !- Minimum Outdoor Air Flow Rate {m3/s}
  Autosize,                               !- Maximum Outdoor Air Flow Rate {m3/s}
  NoEconomizer,                           !- Economizer Control Type
  ModulateFlow,                           !- Economizer Control Action Type
  28,                                     !- Economizer Maximum Limit Dry-Bulb Temperature {C}
  64000,                                  !- Economizer Maximum Limit Enthalpy {J/kg}
  ,                                       !- Economizer Maximum Limit Dewpoint Temperature {C}
  ,                                       !- Electronic Enthalpy Limit Curve Name
  -100,                                   !- Economizer Minimum Limit Dry-Bulb Temperature {C}
  NoLockout,                              !- Lockout Type
  FixedMinimum,                           !- Minimum Limit Type
  ,                                       !- Minimum Outdoor Air Schedule Name
  ,                                       !- Minimum Fraction of Outdoor Air Schedule Name
  ,                                       !- Maximum Fraction of Outdoor Air Schedule Name
  {618edec2-1752-43c5-a606-2daf1fa7fb4f}, !- Controller Mechanical Ventilation
  ,                                       !- Time of Day Economizer Control Schedule Name
  No,                                     !- High Humidity Control
  ,                                       !- Humidistat Control Zone Name
  ,                                       !- High Humidity Outdoor Air Flow Ratio
  ,                                       !- Control High Indoor Humidity Based on Outdoor Humidity Ratio
  BypassWhenOAFlowGreaterThanMinimum;     !- Heat Recovery Bypass Control Type

OS:Controller:MechanicalVentilation,
  {618edec2-1752-43c5-a606-2daf1fa7fb4f}, !- Handle
  Controller Mechanical Ventilation 1,    !- Name
  {4c856f13-dbec-4ba4-a56d-88ec508ffc80}, !- Availability Schedule
  ,                                       !- Demand Controlled Ventilation
  ZoneSum;                                !- System Outdoor Air Method

! Always On Discrete
OS:Schedule:Constant,
  {4c856f13-dbec-4ba4-a56d-88ec508ffc80}, !- Handle
  Always On Discrete hvac_library,        !- Name
  {924a140b-43ba-4884-862e-25f7565dc691}, !- Schedule Type Limits Name
  1;                                      !- Value

! Always OnOff Discrete Schedule Type Limits
OS:ScheduleTypeLimits,
  {924a140b-43ba-4884-862e-25f7565dc691}, !- Handle
  OnOff hvac_library,                     !- Name
  0,                                      !- Lower Limit Value
  1,                                      !- Upper Limit Value
  Discrete,                               !- Numeric Type
  Availability;                           !- Unit Type

OS:Node,
  {9b1b9a87-bb2d-4ce5-946b-b1ddba1387c1}, !- Handle
  Node 6,                                 !- Name
  ,                                       !- Inlet Port
  {542f5b7d-8138-4ac7-b4b2-986f373a3ea3}; !- Outlet Port

OS:Node,
  {3755338a-7df8-44bc-864f-b37e9d3f52aa}, !- Handle
  Node 7,                                 !- Name
  {522b51c9-0b62-407f-8255-603d2b26f46f}, !- Inlet Port
  ;                                       !- Outlet Port

OS:HeatExchanger:AirToAir:SensibleAndLatent,
  {7dfb5ff2-ed53-42e0-a50f-61608145139f}, !- Handle
  ERV HX ++,                              !- Name
  {4c856f13-dbec-4ba4-a56d-88ec508ffc80}, !- Availability Schedule
  autosize,                               !- Nominal Supply Air Flow Rate {m3/s}
  0.76,                                   !- Sensible Effectiveness at 100% Heating Air Flow {dimensionless}
  0.68,                                   !- Latent Effectiveness at 100% Heating Air Flow {dimensionless}
  0.81,                                   !- Sensible Effectiveness at 75% Heating Air Flow {dimensionless}
  0.73,                                   !- Latent Effectiveness at 75% Heating Air Flow {dimensionless}
  0.76,                                   !- Sensible Effectiveness at 100% Cooling Air Flow {dimensionless}
  0.5,                                    !- Latent Effectiveness at 100% Cooling Air Flow {dimensionless}
  0.5,                                    !- Sensible Effectiveness at 75% Cooling Air Flow {dimensionless}
  0.5,                                    !- Latent Effectiveness at 75% Cooling Air Flow {dimensionless}
  {542f5b7d-8138-4ac7-b4b2-986f373a3ea3}, !- Supply Air Inlet Node
  {715505ce-b246-4ecf-be64-6be3defeb49a}, !- Supply Air Outlet Node
  {aa646ee0-525b-4e16-9315-bfd91507a776}, !- Exhaust Air Inlet Node
  {522b51c9-0b62-407f-8255-603d2b26f46f}, !- Exhaust Air Outlet Node
  0,                                      !- Nominal Electric Power {W}
  No,                                     !- Supply Air Outlet Temperature Control
  Rotary,                                 !- Heat Exchanger Type
  None,                                   !- Frost Control Type
  1.7,                                    !- Threshold Temperature {C}
  ,                                       !- Initial Defrost Time Fraction {dimensionless}
  ,                                       !- Rate of Defrost Time Fraction Increase {1/K}
  No;                                     !- Economizer Lockout

OS:HeatExchanger:AirToAir:SensibleAndLatent,
  {ce930e70-e56e-4825-9f17-4a7d3fac1768}, !- Handle
  ERV HX ++ 1,                            !- Name
  {4c856f13-dbec-4ba4-a56d-88ec508ffc80}, !- Availability Schedule
  autosize,                               !- Nominal Supply Air Flow Rate {m3/s}
  0.76,                                   !- Sensible Effectiveness at 100% Heating Air Flow {dimensionless}
  0.68,                                   !- Latent Effectiveness at 100% Heating Air Flow {dimensionless}
  0.81,                                   !- Sensible Effectiveness at 75% Heating Air Flow {dimensionless}
  0.73,                                   !- Latent Effectiveness at 75% Heating Air Flow {dimensionless}
  0.76,                                   !- Sensible Effectiveness at 100% Cooling Air Flow {dimensionless}
  0.5,                                    !- Latent Effectiveness at 100% Cooling Air Flow {dimensionless}
  0.5,                                    !- Sensible Effectiveness at 75% Cooling Air Flow {dimensionless}
  0.5,                                    !- Latent Effectiveness at 75% Cooling Air Flow {dimensionless}
  ,                                       !- Supply Air Inlet Node
  ,                                       !- Supply Air Outlet Node
  ,                                       !- Exhaust Air Inlet Node
  ,                                       !- Exhaust Air Outlet Node
  0,                                      !- Nominal Electric Power {W}
  No,                                     !- Supply Air Outlet Temperature Control
  Rotary,                                 !- Heat Exchanger Type
  None,                                   !- Frost Control Type
  1.7,                                    !- Threshold Temperature {C}
  ,                                       !- Initial Defrost Time Fraction {dimensionless}
  ,                                       !- Rate of Defrost Time Fraction Increase {1/K}
  No;                                     !- Economizer Lockout

OS:Node,
  {eee09d8a-bad8-460a-8fd9-07c15bbb366d}, !- Handle
  Node 9,                                 !- Name
  {715505ce-b246-4ecf-be64-6be3defeb49a}, !- Inlet Port
  {a39ff07d-598f-49ab-8565-db1ca7eda2a1}; !- Outlet Port

OS:Connection,
  {542f5b7d-8138-4ac7-b4b2-986f373a3ea3}, !- Handle
  {c9d60ce6-4192-4c4d-b462-42e29ff22f9e}, !- Name
  {9b1b9a87-bb2d-4ce5-946b-b1ddba1387c1}, !- Source Object
  3,                                      !- Outlet Port
  {7dfb5ff2-ed53-42e0-a50f-61608145139f}, !- Target Object
  12;                                     !- Inlet Port

OS:Connection,
  {715505ce-b246-4ecf-be64-6be3defeb49a}, !- Handle
  {61470a3a-9d4e-4e7b-a41a-8095fc4fadb9}, !- Name
  {7dfb5ff2-ed53-42e0-a50f-61608145139f}, !- Source Object
  13,                                     !- Outlet Port
  {eee09d8a-bad8-460a-8fd9-07c15bbb366d}, !- Target Object
  2;                                      !- Inlet Port

OS:Connection,
  {a39ff07d-598f-49ab-8565-db1ca7eda2a1}, !- Handle
  {5116b1dc-c8e5-4fad-9328-dd2dedd84683}, !- Name
  {eee09d8a-bad8-460a-8fd9-07c15bbb366d}, !- Source Object
  3,                                      !- Outlet Port
  {f1e620df-9e31-4ae7-bb57-01d19a2a970d}, !- Target Object
  6;                                      !- Inlet Port

OS:Node,
  {ec9854a5-a852-4e3b-b958-1290f56697e1}, !- Handle
  Node 10,                                !- Name
  {8c5e94c2-c937-4b69-a39b-8b15ae55beda}, !- Inlet Port
  {aa646ee0-525b-4e16-9315-bfd91507a776}; !- Outlet Port

OS:Connection,
  {8c5e94c2-c937-4b69-a39b-8b15ae55beda}, !- Handle
  {b117699a-3fef-4765-86f3-377d6accfcc1}, !- Name
  {f1e620df-9e31-4ae7-bb57-01d19a2a970d}, !- Source Object
  7,                                      !- Outlet Port
  {ec9854a5-a852-4e3b-b958-1290f56697e1}, !- Target Object
  2;                                      !- Inlet Port

OS:Connection,
  {aa646ee0-525b-4e16-9315-bfd91507a776}, !- Handle
  {3be3acf2-8690-48c5-b59c-9bb4647f7fa2}, !- Name
  {ec9854a5-a852-4e3b-b958-1290f56697e1}, !- Source Object
  3,                                      !- Outlet Port
  {7dfb5ff2-ed53-42e0-a50f-61608145139f}, !- Target Object
  14;                                     !- Inlet Port

OS:Connection,
  {522b51c9-0b62-407f-8255-603d2b26f46f}, !- Handle
  {88625105-2d5e-4110-a639-3d24c70932bd}, !- Name
  {7dfb5ff2-ed53-42e0-a50f-61608145139f}, !- Source Object
  15,                                     !- Outlet Port
  {3755338a-7df8-44bc-864f-b37e9d3f52aa}, !- Target Object
  2;                                      !- Inlet Port

OS:Connection,
  {950c676c-888a-4690-9611-9ed324f42f66}, !- Handle
  {7e299f53-ddc9-407b-b300-400b8576d666}, !- Name
  {ecfb4acd-ed91-40c6-b917-dcf661de2934}, !- Source Object
  3,                                      !- Outlet Port
  {f1e620df-9e31-4ae7-bb57-01d19a2a970d}, !- Target Object
  8;                                      !- Inlet Port

OS:Coil:Cooling:Water,
  {01fe0ef0-2d30-4c90-9cf1-9b48b7d26bc9}, !- Handle
  Coil Cooling Water 1,                   !- Name
  {10c74c8f-61c3-4b97-9792-794c244fec27}, !- Availability Schedule Name
  ,                                       !- Design Water Flow Rate {m3/s}
  ,                                       !- Design Air Flow Rate {m3/s}
  ,                                       !- Design Inlet Water Temperature {C}
  ,                                       !- Design Inlet Air Temperature {C}
  ,                                       !- Design Outlet Air Temperature {C}
  ,                                       !- Design Inlet Air Humidity Ratio {kg-H2O/kg-air}
  ,                                       !- Design Outlet Air Humidity Ratio {kg-H2O/kg-air}
  ,                                       !- Water Inlet Node Name
  ,                                       !- Water Outlet Node Name
  {9fe36e68-7c60-4879-a7d7-187dfc9ad342}, !- Air Inlet Node Name
  {9037c419-b64c-4844-9c7b-c2f344952497}, !- Air Outlet Node Name
  ,                                       !- Type of Analysis
  ;                                       !- Heat Exchanger Configuration

OS:Node,
  {bb3272b1-c2fa-4f8a-86c6-71634fe19e7b}, !- Handle
  Node 8,                                 !- Name
  {3612103e-23ae-4c13-a133-f64ed8f35a25}, !- Inlet Port
  {9fe36e68-7c60-4879-a7d7-187dfc9ad342}; !- Outlet Port

OS:Connection,
  {3612103e-23ae-4c13-a133-f64ed8f35a25}, !- Handle
  {37df573d-2235-4b2d-846a-8e7471680991}, !- Name
  {f1e620df-9e31-4ae7-bb57-01d19a2a970d}, !- Source Object
  5,                                      !- Outlet Port
  {bb3272b1-c2fa-4f8a-86c6-71634fe19e7b}, !- Target Object
  2;                                      !- Inlet Port

OS:Connection,
  {9fe36e68-7c60-4879-a7d7-187dfc9ad342}, !- Handle
  {04f349d6-f332-4389-93a5-0f1bf8253921}, !- Name
  {bb3272b1-c2fa-4f8a-86c6-71634fe19e7b}, !- Source Object
  3,                                      !- Outlet Port
  {01fe0ef0-2d30-4c90-9cf1-9b48b7d26bc9}, !- Target Object
  12;                                     !- Inlet Port

OS:Coil:Heating:Water,
  {14e34add-835a-4ea0-8d29-6b1c04ea53ed}, !- Handle
  Coil Heating Water 1,                   !- Name
  {10c74c8f-61c3-4b97-9792-794c244fec27}, !- Availability Schedule Name
  ,                                       !- U-Factor Times Area Value {W/K}
  ,                                       !- Maximum Water Flow Rate {m3/s}
  ,                                       !- Water Inlet Node Name
  ,                                       !- Water Outlet Node Name
  {aaad2373-de95-4e3b-952c-91b6dea80562}, !- Air Inlet Node Name
  {1cbef377-b9c0-42d8-8c89-a9f93e4e98cc}, !- Air Outlet Node Name
  ,                                       !- Performance Input Method
  ,                                       !- Rated Capacity {W}
  ,                                       !- Rated Inlet Water Temperature {C}
  ,                                       !- Rated Inlet Air Temperature {C}
  ,                                       !- Rated Outlet Water Temperature {C}
  ,                                       !- Rated Outlet Air Temperature {C}
  ;                                       !- Rated Ratio for Air and Water Convection

OS:Node,
  {620e9077-9057-4e8c-996a-fd321a254014}, !- Handle
  Node 11,                                !- Name
  {9037c419-b64c-4844-9c7b-c2f344952497}, !- Inlet Port
  {aaad2373-de95-4e3b-952c-91b6dea80562}; !- Outlet Port

OS:Connection,
  {9037c419-b64c-4844-9c7b-c2f344952497}, !- Handle
  {5f6a01b3-7bf1-47bf-b834-3297404f3a5b}, !- Name
  {01fe0ef0-2d30-4c90-9cf1-9b48b7d26bc9}, !- Source Object
  13,                                     !- Outlet Port
  {620e9077-9057-4e8c-996a-fd321a254014}, !- Target Object
  2;                                      !- Inlet Port

OS:Connection,
  {aaad2373-de95-4e3b-952c-91b6dea80562}, !- Handle
  {500d8af9-3a3a-44c9-94f8-6f3d3e794dff}, !- Name
  {620e9077-9057-4e8c-996a-fd321a254014}, !- Source Object
  3,                                      !- Outlet Port
  {14e34add-835a-4ea0-8d29-6b1c04ea53ed}, !- Target Object
  7;                                      !- Inlet Port

OS:Fan:VariableVolume,
  {6a557a90-caef-42e4-a6ff-0544f132244d}, !- Handle
  Fan Variable Volume 1,                  !- Name
  {10c74c8f-61c3-4b97-9792-794c244fec27}, !- Availability Schedule Name
  0.6045,                                 !- Fan Efficiency
  500,                                    !- Pressure Rise {Pa}