
OS:Version,
  {54ba59c0-da3e-4770-bbb5-6626962e14aa}, !- Handle
  2.4.0;                                  !- Version Identifier

OS:Site,
  {05434a70-62c7-4503-8c48-b541842c670a}, !- Handle
  Site 1,                                 !- Name
  ,                                       !- Latitude {deg}
  ,                                       !- Longitude {deg}
  ,                                       !- Time Zone {hr}
  ,                                       !- Elevation {m}
  ;                                       !- Terrain

OS:YearDescription,
  {eeb90ec8-73ea-4ede-a080-cfdfb7e9c631}; !- Handle

OS:ClimateZones,
  {ed5ef348-ff69-4d27-a05b-e41e88caa7cb}, !- Handle
  ,                                       !- Active Institution
  ,                                       !- Active Year
  ,                                       !- Climate Zone Institution Name 1
  ,                                       !- Climate Zone Document Name 1
  ,                                       !- Climate Zone Document Year 1
  ,                                       !- Climate Zone Value 1
  CEC,                                    !- Climate Zone Institution Name 2
  California Climate Zone Descriptions,   !- Climate Zone Document Name 2
  1995,                                   !- Climate Zone Document Year 2
  ;                                       !- Climate Zone Value 2

OS:Building,
  {b8cf50c0-3e97-426a-ba79-cd88094c77a7}, !- Handle
  Building 1,                             !- Name
  ,                                       !- Building Sector Type
  ,                                       !- North Axis {deg}
  ,                                       !- Nominal Floor to Floor Height {m}
  ,                                       !- Space Type Name
  ,                                       !- Default Construction Set Name
  ;                                       !- Default Schedule Set Name

OS:Facility,
  {1d179c43-e4f0-4e1d-8425-b684445b13ec}; !- Handle

OS:SimulationControl,
  {2f9ec432-9d60-4970-9c33-fd7721e93bb5}; !- Handle

OS:Sizing:Parameters,
  {df7e76a6-f899-4e5d-aa7f-14c9514bc240}, !- Handle
  1.25,                                   !- Heating Sizing Factor
  1.15;                                   !- Cooling Sizing Factor

OS:Timestep,
  {875f92db-3925-41cd-88f0-653912d7d558}, !- Handle
  6;                                      !- Number of Timesteps per Hour

OS:ShadowCalculation,
  {4caa93f5-5e24-45ca-ab7b-b87bb9051f83}, !- Handle
  20,                                     !- Calculation Frequency
  15000;                                  !- Maximum Figures in Shadow Overlap Calculations

OS:HeatBalanceAlgorithm,
  {643096b3-5938-4c49-b35e-ccf434c56d5f}, !- Handle
  ConductionTransferFunction,             !- Algorithm
  200;                                    !- Surface Temperature Upper Limit {C}

OS:RunPeriod,
  {7fd01dbe-5dec-410e-b008-32ffb319efa8}, !- Handle
  Run Period 1,                           !- Name
  1,                                      !- Begin Month
  1,                                      !- Begin Day of Month
  12,                                     !- End Month
  31,                                     !- End Day of Month
  ,                                       !- Use Weather File Holidays and Special Days
  ,                                       !- Use Weather File Daylight Saving Period
  ,                                       !- Apply Weekend Holiday Rule
  ,                                       !- Use Weather File Rain Indicators
  ,                                       !- Use Weather File Snow Indicators
  ;                                       !- Number of Times Runperiod to be Repeated

OS:LifeCycleCost:Parameters,
  {ebe5a6d1-7b0d-400d-976d-638e1cc9a5fe}, !- Handle
  ,                                       !- Analysis Type
  ,                                       !- Discounting Convention
  ,                                       !- Inflation Approach
  ,                                       !- Real Discount Rate
  ,                                       !- Nominal Discount Rate
  ,                                       !- Inflation
  ,                                       !- Base Date Month
  ,                                       !- Base Date Year
  ,                                       !- Service Date Month
  ,                                       !- Service Date Year
  ;                                       !- Length of Study Period in Years

OS:AirLoopHVAC,
  {6ec1c5b9-5156-46ab-a674-2883a5b7e929}, !- Handle
  _VAV with Reheat,                       !- Name
  ,                                       !- Controller List Name
  {c7379d88-b71b-4950-9c1b-dae7559eba71}, !- Availability Schedule
  {5d08a2a2-9190-4bd9-9dcc-a25581e7c9a5}, !- Availability Manager List Name
  AutoSize,                               !- Design Supply Air Flow Rate {m3/s}
  ,                                       !- Branch List Name
  ,                                       !- Connector List Name
  {e2b40cfe-e41b-4b80-a58f-8d5dd5de3559}, !- Supply Side Inlet Node Name
  {bded1ec4-fb56-4f44-a11b-764a59c27810}, !- Demand Side Outlet Node Name
  {da6eef00-eb96-4659-837e-f4e7d70c5add}, !- Demand Side Inlet Node A
  {827ef8c9-780e-409a-a4d6-21bdc8525dfb}, !- Supply Side Outlet Node A
  ,                                       !- Demand Side Inlet Node B
  ,                                       !- Supply Side Outlet Node B
  ,                                       !- Return Air Bypass Flow Temperature Setpoint Schedule Name
  {5bf2493d-dd4e-4b77-b137-fb131f5ec6c8}, !- Demand Mixer Name
  {5fc70a21-eab8-41d6-9287-41b07221456b}, !- Demand Splitter A Name
  ,                                       !- Demand Splitter B Name
  ;                                       !- Supply Splitter Name

OS:Node,
  {dc369e9d-7857-4649-ae02-0aa10d69b9a5}, !- Handle
  Node 1,                                 !- Name
  {e2b40cfe-e41b-4b80-a58f-8d5dd5de3559}, !- Inlet Port
  {3f030951-7975-41de-bf17-28c2bad89dae}; !- Outlet Port

OS:Node,
  {51eb4bb7-744a-4767-b2bf-382c45ccf6a1}, !- Handle
  Node 2,                                 !- Name
  {956bda65-ee0a-409b-ad12-ac37162c2830}, !- Inlet Port
  {827ef8c9-780e-409a-a4d6-21bdc8525dfb}; !- Outlet Port

OS:Connection,
  {e2b40cfe-e41b-4b80-a58f-8d5dd5de3559}, !- Handle
  {9476a8a8-768b-4b5d-9584-fcb47a4a504d}, !- Name
  {6ec1c5b9-5156-46ab-a674-2883a5b7e929}, !- Source Object
  8,                                      !- Outlet Port
  {dc369e9d-7857-4649-ae02-0aa10d69b9a5}, !- Target Object
  2;                                      !- Inlet Port

OS:Connection,
  {827ef8c9-780e-409a-a4d6-21bdc8525dfb}, !- Handle
  {fbd03a6e-8bd0-48d4-a7d6-e3adf3ea143a}, !- Name
  {51eb4bb7-744a-4767-b2bf-382c45ccf6a1}, !- Source Object
  3,                                      !- Outlet Port
  {6ec1c5b9-5156-46ab-a674-2883a5b7e929}, !- Target Object
  11;                                     !- Inlet Port

OS:Node,
  {4ecf880a-9b81-4db9-9450-f6e04e346661}, !- Handle
  Node 3,                                 !- Name
  {da6eef00-eb96-4659-837e-f4e7d70c5add}, !- Inlet Port
  {e84341f0-36e4-4df4-bd60-768d6482171f}; !- Outlet Port

OS:Node,
  {48c967b3-0158-4f9d-a118-5196510acee8}, !- Handle
  Node 4,                                 !- Name
  {cf1db70e-8eb4-4f18-bb93-7976533d00b6}, !- Inlet Port
  {bded1ec4-fb56-4f44-a11b-764a59c27810}; !- Outlet Port

OS:Node,
  {bb06788e-eb1b-4f8b-86f1-318ae14a7882}, !- Handle
  Node 5,                                 !- Name
  {362b61bf-de28-42c5-8639-2069882d97cf}, !- Inlet Port
  {a4ae8ceb-2e70-4d9d-b763-6000d180fb23}; !- Outlet Port

OS:Connection,
  {da6eef00-eb96-4659-837e-f4e7d70c5add}, !- Handle
  {f61be488-763c-4f36-8edb-6f14d0d8c6fb}, !- Name
  {6ec1c5b9-5156-46ab-a674-2883a5b7e929}, !- Source Object
  10,                                     !- Outlet Port
  {4ecf880a-9b81-4db9-9450-f6e04e346661}, !- Target Object
  2;                                      !- Inlet Port

OS:Connection,
  {bded1ec4-fb56-4f44-a11b-764a59c27810}, !- Handle
  {600451dc-ed7a-4089-b5a1-475fd01f0928}, !- Name
  {48c967b3-0158-4f9d-a118-5196510acee8}, !- Source Object
  3,                                      !- Outlet Port
  {6ec1c5b9-5156-46ab-a674-2883a5b7e929}, !- Target Object
  9;                                      !- Inlet Port

OS:AirLoopHVAC:ZoneSplitter,
  {5fc70a21-eab8-41d6-9287-41b07221456b}, !- Handle
  Air Loop HVAC Zone Splitter 1,          !- Name
  {e84341f0-36e4-4df4-bd60-768d6482171f}, !- Inlet Node Name
  {362b61bf-de28-42c5-8639-2069882d97cf}; !- Outlet Node Name 1

OS:AirLoopHVAC:ZoneMixer,
  {5bf2493d-dd4e-4b77-b137-fb131f5ec6c8}, !- Handle
  Air Loop HVAC Zone Mixer 1,             !- Name
  {cf1db70e-8eb4-4f18-bb93-7976533d00b6}, !- Outlet Node Name
  {a4ae8ceb-2e70-4d9d-b763-6000d180fb23}; !- Inlet Node Name 1

OS:Connection,
  {e84341f0-36e4-4df4-bd60-768d6482171f}, !- Handle
  {2ce4d6c1-b2c7-4353-a41c-855939ceb52b}, !- Name
  {4ecf880a-9b81-4db9-9450-f6e04e346661}, !- Source Object
  3,                                      !- Outlet Port
  {5fc70a21-eab8-41d6-9287-41b07221456b}, !- Target Object
  2;                                      !- Inlet Port

OS:Connection,
  {362b61bf-de28-42c5-8639-2069882d97cf}, !- Handle
  {51f7802a-ec66-48e4-88c6-993af6842e84}, !- Name
  {5fc70a21-eab8-41d6-9287-41b07221456b}, !- Source Object
  3,                                      !- Outlet Port
  {bb06788e-eb1b-4f8b-86f1-318ae14a7882}, !- Target Object
  2;                                      !- Inlet Port

OS:Connection,
  {a4ae8ceb-2e70-4d9d-b763-6000d180fb23}, !- Handle
  {a2356a9e-aa9a-4f93-adf2-7efe9eda17f9}, !- Name
  {bb06788e-eb1b-4f8b-86f1-318ae14a7882}, !- Source Object
  3,                                      !- Outlet Port
  {5bf2493d-dd4e-4b77-b137-fb131f5ec6c8}, !- Target Object
  3;                                      !- Inlet Port

OS:Connection,
  {cf1db70e-8eb4-4f18-bb93-7976533d00b6}, !- Handle
  {de9c924d-fe4d-4edb-96fc-f790a294ad06}, !- Name
  {5bf2493d-dd4e-4b77-b137-fb131f5ec6c8}, !- Source Object
  2,                                      !- Outlet Port
  {48c967b3-0158-4f9d-a118-5196510acee8}, !- Target Object
  2;                                      !- Inlet Port

OS:Sizing:System,
  {725015ec-dcf7-4c4b-8452-70c9d5cf8dd3}, !- Handle
  {6ec1c5b9-5156-46ab-a674-2883a5b7e929}, !- AirLoop Name
  Sensible,                               !- Type of Load to Size On
  Autosize,                               !- Design Outdoor Air Flow Rate {m3/s}
  0.3,                                    !- Minimum System Air Flow Ratio
  7,                                      !- Preheat Design Temperature {C}
  0.008,                                  !- Preheat Design Humidity Ratio {kg-H2O/kg-Air}
  12.8,                                   !- Precool Design Temperature {C}
  0.008,                                  !- Precool Design Humidity Ratio {kg-H2O/kg-Air}
  12.8,                                   !- Central Cooling Design Supply Air Temperature {C}
  16.7,                                   !- Central Heating Design Supply Air Temperature {C}
  NonCoincident,                          !- Sizing Option
  Yes,                                    !- 100% Outdoor Air in Cooling
  Yes,                                    !- 100% Outdoor Air in Heating
  0.0085,                                 !- Central Cooling Design Supply Air Humidity Ratio {kg-H2O/kg-Air}
  0.008,                                  !- Central Heating Design Supply Air Humidity Ratio {kg-H2O/kg-Air}
  DesignDay,                              !- Cooling Design Air Flow Method
  0,                                      !- Cooling Design Air Flow Rate {m3/s}
  DesignDay,                              !- Heating Design Air Flow Method
  0,                                      !- Heating Design Air Flow Rate {m3/s}
  ZoneSum,                                !- System Outdoor Air Method
  1,                                      !- Zone Maximum Outdoor Air Fraction {dimensionless}
  0.0099676501,                           !- Cooling Supply Air Flow Rate Per Floor Area {m3/s-m2}
  1,                                      !- Cooling Fraction of Autosized Cooling Supply Air Flow Rate
  3.9475456e-005,                         !- Cooling Supply Air Flow Rate Per Unit Cooling Capacity {m3/s-W}
  0.0099676501,                           !- Heating Supply Air Flow Rate Per Floor Area {m3/s-m2}
  1,                                      !- Heating Fraction of Autosized Heating Supply Air Flow Rate
  1,                                      !- Heating Fraction of Autosized Cooling Supply Air Flow Rate
  3.1588213e-005,                         !- Heating Supply Air Flow Rate Per Unit Heating Capacity {m3/s-W}
  CoolingDesignCapacity,                  !- Cooling Design Capacity Method
  autosize,                               !- Cooling Design Capacity {W}
  234.7,                                  !- Cooling Design Capacity Per Floor Area {W/m2}
  1,                                      !- Fraction of Autosized Cooling Design Capacity
  HeatingDesignCapacity,                  !- Heating Design Capacity Method
  autosize,                               !- Heating Design Capacity {W}
  157,                                    !- Heating Design Capacity Per Floor Area {W/m2}
  1,                                      !- Fraction of Autosized Heating Design Capacity
  OnOff;                                  !- Central Cooling Capacity Control Method

OS:Schedule:Constant,
  {c7379d88-b71b-4950-9c1b-dae7559eba71}, !- Handle
  Always On Discrete,                     !- Name
  {faaf8f69-952c-4121-98ab-418526327ed7}, !- Schedule Type Limits Name
  1;                                      !- Value

OS:ScheduleTypeLimits,
  {faaf8f69-952c-4121-98ab-418526327ed7}, !- Handle
  OnOff,                                  !- Name
  0,                                      !- Lower Limit Value
  1,                                      !- Upper Limit Value
  Discrete,                               !- Numeric Type
  Availability;                           !- Unit Type

OS:AvailabilityManagerAssignmentList,
  {5d08a2a2-9190-4bd9-9dcc-a25581e7c9a5}, !- Handle
  Air Loop HVAC 1 AvailabilityManagerAssignmentList; !- Name

OS:AirLoopHVAC:OutdoorAirSystem,
  {40d8f0f8-75e5-43f2-b234-5161b27a611e}, !- Handle
  OA System,                              !- Name
  {a5cdaef9-7e15-408c-b8ca-46719bf01ebe}, !- Controller Name
  ,                                       !- Outdoor Air Equipment List Name
  ,                                       !- Availability Manager List Name
  {56d0ceab-aa6f-4e58-9f86-dde3b5659df5}, !- Mixed Air Node Name
  {ea9b56f4-c330-48cf-aec3-b21383c1dcb7}, !- Outdoor Air Stream Node Name
  {98e9c25c-d60a-454f-9fc9-9041e2f2c39d}, !- Relief Air Stream Node Name
  {3f030951-7975-41de-bf17-28c2bad89dae}; !- Return Air Stream Node Name

OS:Controller:OutdoorAir,
  {a5cdaef9-7e15-408c-b8ca-46719bf01ebe}, !- Handle
  Outdoor Air Controller,                 !- Name
  ,                                       !- Relief Air Outlet Node Name
  ,                                       !- Return Air Node Name
  ,                                       !- Mixed Air Node Name
  ,                                       !- Actuator Node Name
  Autosize,                               !- Minimum Outdoor Air Flow Rate {m3/s}
  Autosize,                               !- Maximum Outdoor Air Flow Rate {m3/s}
  NoEconomizer,                           !- Economizer Control Type
  ModulateFlow,                           !- Economizer Control Action Type
  28,                                     !- Economizer Maximum Limit Dry-Bulb Temperature {C}
  64000,                                  !- Economizer Maximum Limit Enthalpy {J/kg}
  ,                                       !- Economizer Maximum Limit Dewpoint Temperature {C}
  ,                                       !- Electronic Enthalpy Limit Curve Name
  -100,                                   !- Economizer Minimum Limit Dry-Bulb Temperature {C}
  NoLockout,                              !- Lockout Type
  FixedMinimum,                           !- Minimum Limit Type
  ,                                       !- Minimum Outdoor Air Schedule Name
  ,                                       !- Minimum Fraction of Outdoor Air Schedule Name
  ,                                       !- Maximum Fraction of Outdoor Air Schedule Name
  {04297d4b-95e8-4621-ab2b-a737ff24defc}, !- Controller Mechanical Ventilation
  ,                                       !- Time of Day Economizer Control Schedule Name
  No,                                     !- High Humidity Control
  ,                                       !- Humidistat Control Zone Name
  ,                                       !- High Humidity Outdoor Air Flow Ratio
  ,                                       !- Control High Indoor Humidity Based on Outdoor Humidity Ratio
  BypassWhenOAFlowGreaterThanMinimum;     !- Heat Recovery Bypass Control Type

OS:Controller:MechanicalVentilation,
  {04297d4b-95e8-4621-ab2b-a737ff24defc}, !- Handle
  Controller Mechanical Ventilation 1,    !- Name
  {12d6be6c-b49f-4ea5-9e15-2953a5d024d3}, !- Availability Schedule
  ,                                       !- Demand Controlled Ventilation
  ZoneSum;                                !- System Outdoor Air Method

! Always On Discrete
OS:Schedule:Constant,
  {12d6be6c-b49f-4ea5-9e15-2953a5d024d3}, !- Handle
  Always On Discrete hvac_library,        !- Name
  {35354806-82d4-459b-b258-42fa9d5bbef1}, !- Schedule Type Limits Name
  1;                                      !- Value

! Always OnOff Discrete Schedule Type Limits
OS:ScheduleTypeLimits,
  {35354806-82d4-459b-b258-42fa9d5bbef1}, !- Handle
  OnOff hvac_library,                     !- Name
  0,                                      !- Lower Limit Value
  1,                                      !- Upper Limit Value
  Discrete,                               !- Numeric Type
  Availability;                           !- Unit Type

OS:Node,
  {e2aa10d4-0e20-48ba-9d95-69c741ff9404}, !- Handle
  Node 6,                                 !- Name
  ,                                       !- Inlet Port
  {4dfca5cf-3eca-4441-a3d0-d6c8cf4d2dce}; !- Outlet Port

OS:Node,
  {cbd06d73-9360-4b01-ae30-c2927201a801}, !- Handle
  Node 7,                                 !- Name
  {d1d6e24a-88b8-49fb-a3b0-bc91feb6f74c}, !- Inlet Port
  ;                                       !- Outlet Port

OS:HeatExchanger:AirToAir:SensibleAndLatent,
  {a87d3c2d-52a0-4415-a6a9-261c01f12a20}, !- Handle
  ERV HX ++,                              !- Name
  {12d6be6c-b49f-4ea5-9e15-2953a5d024d3}, !- Availability Schedule
  autosize,                               !- Nominal Supply Air Flow Rate {m3/s}
  0.76,                                   !- Sensible Effectiveness at 100% Heating Air Flow {dimensionless}
  0.68,                                   !- Latent Effectiveness at 100% Heating Air Flow {dimensionless}
  0.81,                                   !- Sensible Effectiveness at 75% Heating Air Flow {dimensionless}
  0.73,                                   !- Latent Effectiveness at 75% Heating Air Flow {dimensionless}
  0.76,                                   !- Sensible Effectiveness at 100% Cooling Air Flow {dimensionless}
  0.5,                                    !- Latent Effectiveness at 100% Cooling Air Flow {dimensionless}
  0.5,                                    !- Sensible Effectiveness at 75% Cooling Air Flow {dimensionless}
  0.5,                                    !- Latent Effectiveness at 75% Cooling Air Flow {dimensionless}
  {4dfca5cf-3eca-4441-a3d0-d6c8cf4d2dce}, !- Supply Air Inlet Node
  {0b178e3d-e1cb-4e1c-a585-2f04e539d3b6}, !- Supply Air Outlet Node
  {b9cc7407-b603-4dda-a789-c723bd389d64}, !- Exhaust Air Inlet Node
  {d1d6e24a-88b8-49fb-a3b0-bc91feb6f74c}, !- Exhaust Air Outlet Node
  0,                                      !- Nominal Electric Power {W}
  No,                                     !- Supply Air Outlet Temperature Control
  Rotary,                                 !- Heat Exchanger Type
  None,                                   !- Frost Control Type
  1.7,                                    !- Threshold Temperature {C}
  ,                                       !- Initial Defrost Time Fraction {dimensionless}
  ,                                       !- Rate of Defrost Time Fraction Increase {1/K}
  No;                                     !- Economizer Lockout

OS:HeatExchanger:AirToAir:SensibleAndLatent,
  {21d8f7b4-6460-45f5-ac20-6df7ca0879ff}, !- Handle
  ERV HX ++ 1,                            !- Name
  {12d6be6c-b49f-4ea5-9e15-2953a5d024d3}, !- Availability Schedule
  autosize,                               !- Nominal Supply Air Flow Rate {m3/s}
  0.76,                                   !- Sensible Effectiveness at 100% Heating Air Flow {dimensionless}
  0.68,                                   !- Latent Effectiveness at 100% Heating Air Flow {dimensionless}
  0.81,                                   !- Sensible Effectiveness at 75% Heating Air Flow {dimensionless}
  0.73,                                   !- Latent Effectiveness at 75% Heating Air Flow {dimensionless}
  0.76,                                   !- Sensible Effectiveness at 100% Cooling Air Flow {dimensionless}
  0.5,                                    !- Latent Effectiveness at 100% Cooling Air Flow {dimensionless}
  0.5,                                    !- Sensible Effectiveness at 75% Cooling Air Flow {dimensionless}
  0.5,                                    !- Latent Effectiveness at 75% Cooling Air Flow {dimensionless}
  ,                                       !- Supply Air Inlet Node
  ,                                       !- Supply Air Outlet Node
  ,                                       !- Exhaust Air Inlet Node
  ,                                       !- Exhaust Air Outlet Node
  0,                                      !- Nominal Electric Power {W}
  No,                                     !- Supply Air Outlet Temperature Control
  Rotary,                                 !- Heat Exchanger Type
  None,                                   !- Frost Control Type
  1.7,                                    !- Threshold Temperature {C}
  ,                                       !- Initial Defrost Time Fraction {dimensionless}
  ,                                       !- Rate of Defrost Time Fraction Increase {1/K}
  No;                                     !- Economizer Lockout

OS:Node,
  {9f25d735-b021-485c-82f3-a96cac59247f}, !- Handle
  Node 9,                                 !- Name
  {0b178e3d-e1cb-4e1c-a585-2f04e539d3b6}, !- Inlet Port
  {ea9b56f4-c330-48cf-aec3-b21383c1dcb7}; !- Outlet Port

OS:Connection,
  {4dfca5cf-3eca-4441-a3d0-d6c8cf4d2dce}, !- Handle
  {b1f2edf1-ddb6-401b-aa17-5956dbb1ccf2}, !- Name
  {e2aa10d4-0e20-48ba-9d95-69c741ff9404}, !- Source Object
  3,                                      !- Outlet Port
  {a87d3c2d-52a0-4415-a6a9-261c01f12a20}, !- Target Object
  12;                                     !- Inlet Port

OS:Connection,
  {0b178e3d-e1cb-4e1c-a585-2f04e539d3b6}, !- Handle
  {da07ca37-290b-4df1-b444-9de860d8895b}, !- Name
  {a87d3c2d-52a0-4415-a6a9-261c01f12a20}, !- Source Object
  13,                                     !- Outlet Port
  {9f25d735-b021-485c-82f3-a96cac59247f}, !- Target Object
  2;                                      !- Inlet Port

OS:Connection,
  {ea9b56f4-c330-48cf-aec3-b21383c1dcb7}, !- Handle
  {26e940f6-7175-418a-8c57-e4a2cc0b999b}, !- Name
  {9f25d735-b021-485c-82f3-a96cac59247f}, !- Source Object
  3,                                      !- Outlet Port
  {40d8f0f8-75e5-43f2-b234-5161b27a611e}, !- Target Object
  6;                                      !- Inlet Port

OS:Node,
  {2e5a346b-73cf-452f-88a0-ef1dc232edcc}, !- Handle
  Node 10,                                !- Name
  {98e9c25c-d60a-454f-9fc9-9041e2f2c39d}, !- Inlet Port
  {b9cc7407-b603-4dda-a789-c723bd389d64}; !- Outlet Port

OS:Connection,
  {98e9c25c-d60a-454f-9fc9-9041e2f2c39d}, !- Handle
  {1b67e763-9752-48c2-b056-cda542564979}, !- Name
  {40d8f0f8-75e5-43f2-b234-5161b27a611e}, !- Source Object
  7,                                      !- Outlet Port
  {2e5a346b-73cf-452f-88a0-ef1dc232edcc}, !- Target Object
  2;                                      !- Inlet Port

OS:Connection,
  {b9cc7407-b603-4dda-a789-c723bd389d64}, !- Handle
  {a02f3bc7-06ec-4a53-add9-9c55bf152c09}, !- Name
  {2e5a346b-73cf-452f-88a0-ef1dc232edcc}, !- Source Object
  3,                                      !- Outlet Port
  {a87d3c2d-52a0-4415-a6a9-261c01f12a20}, !- Target Object
  14;                                     !- Inlet Port

OS:Connection,
  {d1d6e24a-88b8-49fb-a3b0-bc91feb6f74c}, !- Handle
  {c879a523-05c8-41fc-adca-b517d9a52d46}, !- Name
  {a87d3c2d-52a0-4415-a6a9-261c01f12a20}, !- Source Object
  15,                                     !- Outlet Port
  {cbd06d73-9360-4b01-ae30-c2927201a801}, !- Target Object
  2;                                      !- Inlet Port

OS:Connection,
  {3f030951-7975-41de-bf17-28c2bad89dae}, !- Handle
  {b15d9b27-4190-4ef4-96fd-70ff8e66c83d}, !- Name
  {dc369e9d-7857-4649-ae02-0aa10d69b9a5}, !- Source Object
  3,                                      !- Outlet Port
  {40d8f0f8-75e5-43f2-b234-5161b27a611e}, !- Target Object
  8;                                      !- Inlet Port

OS:Coil:Cooling:Water,
  {bd886649-6dd1-4b48-a865-b7fc18f7f1aa}, !- Handle
  Coil Cooling Water 1,                   !- Name
  {c7379d88-b71b-4950-9c1b-dae7559eba71}, !- Availability Schedule Name
  ,                                       !- Design Water Flow Rate {m3/s}
  ,                                       !- Design Air Flow Rate {m3/s}
  ,                                       !- Design Inlet Water Temperature {C}
  ,                                       !- Design Inlet Air Temperature {C}
  ,                                       !- Design Outlet Air Temperature {C}
  ,                                       !- Design Inlet Air Humidity Ratio {kg-H2O/kg-air}
  ,                                       !- Design Outlet Air Humidity Ratio {kg-H2O/kg-air}
  ,                                       !- Water Inlet Node Name
  ,                                       !- Water Outlet Node Name
  {f6c39b30-0f56-4124-bb58-88334335634b}, !- Air Inlet Node Name
  {99ec1286-0209-408f-986f-65f9a0a07f63}, !- Air Outlet Node Name
  ,                                       !- Type of Analysis
  ;                                       !- Heat Exchanger Configuration

OS:Node,
  {db1d4915-d61f-40e6-a5e1-c340166cf611}, !- Handle
  Node 8,                                 !- Name
  {56d0ceab-aa6f-4e58-9f86-dde3b5659df5}, !- Inlet Port
  {f6c39b30-0f56-4124-bb58-88334335634b}; !- Outlet Port

OS:Connection,
  {56d0ceab-aa6f-4e58-9f86-dde3b5659df5}, !- Handle
  {9a4600f5-2efa-4863-98c6-feb0c8207375}, !- Name
  {40d8f0f8-75e5-43f2-b234-5161b27a611e}, !- Source Object
  5,                                      !- Outlet Port
  {db1d4915-d61f-40e6-a5e1-c340166cf611}, !- Target Object
  2;                                      !- Inlet Port

OS:Connection,
  {f6c39b30-0f56-4124-bb58-88334335634b}, !- Handle
  {887b606a-0361-4c93-b1a8-ec1b4ccc9339}, !- Name
  {db1d4915-d61f-40e6-a5e1-c340166cf611}, !- Source Object
  3,                                      !- Outlet Port
  {bd886649-6dd1-4b48-a865-b7fc18f7f1aa}, !- Target Object
  12;                                     !- Inlet Port

OS:Coil:Heating:Water,
  {17d589ac-a304-4f51-87c6-9d1edf7d2e33}, !- Handle
  Coil Heating Water 1,                   !- Name
  {c7379d88-b71b-4950-9c1b-dae7559eba71}, !- Availability Schedule Name
  ,                                       !- U-Factor Times Area Value {W/K}
  ,                                       !- Maximum Water Flow Rate {m3/s}
  ,                                       !- Water Inlet Node Name
  ,                                       !- Water Outlet Node Name
  {d252f300-72a7-4eda-a2f6-6c376da30a69}, !- Air Inlet Node Name
  {8be9d9dc-547c-4b06-9811-91a15c03ae4c}, !- Air Outlet Node Name
  ,                                       !- Performance Input Method
  ,                                       !- Rated Capacity {W}
  ,                                       !- Rated Inlet Water Temperature {C}
  ,                                       !- Rated Inlet Air Temperature {C}
  ,                                       !- Rated Outlet Water Temperature {C}
  ,                                       !- Rated Outlet Air Temperature {C}
  ;                                       !- Rated Ratio for Air and Water Convection

OS:Node,
  {aed2187e-7917-4d22-849c-5455812a4e2c}, !- Handle
  Node 11,                                !- Name
  {99ec1286-0209-408f-986f-65f9a0a07f63}, !- Inlet Port
  {d252f300-72a7-4eda-a2f6-6c376da30a69}; !- Outlet Port

OS:Connection,
  {99ec1286-0209-408f-986f-65f9a0a07f63}, !- Handle
  {4ff35d07-8eb6-44b6-a25d-ba5f8d730b62}, !- Name
  {bd886649-6dd1-4b48-a865-b7fc18f7f1aa}, !- Source Object
  13,                                     !- Outlet Port
  {aed2187e-7917-4d22-849c-5455812a4e2c}, !- Target Object
  2;                                      !- Inlet Port

OS:Connection,
  {d252f300-72a7-4eda-a2f6-6c376da30a69}, !- Handle
  {6a5ff18a-e0ec-48c7-8c02-010156bb63b1}, !- Name
  {aed2187e-7917-4d22-849c-5455812a4e2c}, !- Source Object
  3,                                      !- Outlet Port
  {17d589ac-a304-4f51-87c6-9d1edf7d2e33}, !- Target Object
  7;                                      !- Inlet Port

OS:Fan:VariableVolume,
  {e83a37af-6383-48c2-8457-b4ac295d0d50}, !- Handle
  Fan Variable Volume 1,                  !- Name
  {c7379d88-b71b-4950-9c1b-dae7559eba71}, !- Availability Schedule Name
  0.6045,                                 !- Fan Efficiency
  500,                                    !- Pressure Rise {Pa}