
OS:Version,
  {3b4adb97-74e2-40f8-84dd-b7b1b62f61dd}, !- Handle
  2.4.0;                                  !- Version Identifier

OS:Schedule:Ruleset,
  {6f8160ba-b555-4cfd-86dc-6256ba12c334}, !- Handle
  Schedule - [ktUtdKfl],                  !- Name
  ,                                       !- Schedule Type Limits Name
  {8d8518ec-787e-4eaa-9885-e2339528599a}; !- Default Day Schedule Name

OS:Schedule:Day,
  {8d8518ec-787e-4eaa-9885-e2339528599a}, !- Handle
  Schedule Day 1,                         !- Name
  ,                                       !- Schedule Type Limits Name
  ,                                       !- Interpolate to Timestep
  1,                                      !- Hour 1
  0,                                      !- Minute 1
  2,                                      !- Value Until Time 1
  3,                                      !- Hour 2
  0,                                      !- Minute 2
  1,                                      !- Value Until Time 2
  7,                                      !- Hour 3
  0,                                      !- Minute 3
  0,                                      !- Value Until Time 3
  10,                                     !- Hour 4
  0,                                      !- Minute 4
  1,                                      !- Value Until Time 4
  11,                                     !- Hour 5
  0,                                      !- Minute 5
  0,                                      !- Value Until Time 5
  18,                                     !- Hour 6
  0,                                      !- Minute 6
  1,                                      !- Value Until Time 6
  22,                                     !- Hour 7
  0,                                      !- Minute 7
  0,                                      !- Value Until Time 7
  23,                                     !- Hour 8
  0,                                      !- Minute 8
  1,                                      !- Value Until Time 8
  24,                                     !- Hour 9
  0,                                      !- Minute 9
  3;                                      !- Value Until Time 9

OS:Schedule:Rule,
  {b9e83524-99fa-40df-b02b-fbbf04963937}, !- Handle
  ScheduleRule - [xtp0u2LI],              !- Name
  {6f8160ba-b555-4cfd-86dc-6256ba12c334}, !- Schedule Ruleset Name
  0,                                      !- Rule Order
  {5d2c1423-5f15-45b9-a94c-0f208384b9d8}; !- Day Schedule Name

OS:Schedule:Day,
  {5d2c1423-5f15-45b9-a94c-0f208384b9d8}, !- Handle
  ScheduleDay - [LSLZyruE],               !- Name
  ,                                       !- Schedule Type Limits Name
  ,                                       !- Interpolate to Timestep
  1,                                      !- Hour 1
  0,                                      !- Minute 1
  0.1,                                    !- Value Until Time 1
  7,                                      !- Hour 2
  0,                                      !- Minute 2
  0,                                      !- Value Until Time 2
  8,                                      !- Hour 3
  0,                                      !- Minute 3
  0.2,                                    !- Value Until Time 3
  9,                                      !- Hour 4
  0,                                      !- Minute 4
  0.5,                                    !- Value Until Time 4
  10,                                     !- Hour 5
  0,                                      !- Minute 5
  1,                                      !- Value Until Time 5
  13,                                     !- Hour 6
  0,                                      !- Minute 6
  2,                                      !- Value Until Time 6
  17,                                     !- Hour 7
  0,                                      !- Minute 7
  1,                                      !- Value Until Time 7
  18,                                     !- Hour 8
  0,                                      !- Minute 8
  0.2,                                    !- Value Until Time 8
  24,                                     !- Hour 9
  0,                                      !- Minute 9
  0;                                      !- Value Until Time 9

