
OS:Version,
  {cab1f66f-184d-4b72-9a09-17be56dc58ae}, !- Handle
  2.4.0;                                  !- Version Identifier

! TrackingID:#[jVzZUKUm]
OS:Boiler:HotWater,
  {faa63d9e-eb6b-4b99-a11d-934619dea31a}, !- Handle
  Boiler Hot Water 1,                     !- Name
  ,                                       !- Fuel Type
  ,                                       !- Nominal Capacity {W}
  ,                                       !- Nominal Thermal Efficiency
  ,                                       !- Efficiency Curve Temperature Evaluation Variable
  ,                                       !- Normalized Boiler Efficiency Curve Name
  ,                                       !- Design Water Outlet Temperature {C}
  ,                                       !- Design Water Flow Rate {m3/s}
  ,                                       !- Minimum Part Load Ratio
  ,                                       !- Maximum Part Load Ratio
  ,                                       !- Optimum Part Load Ratio
  ,                                       !- Boiler Water Inlet Node Name
  ,                                       !- Boiler Water Outlet Node Name
  99,                                     !- Water Outlet Upper Temperature Limit {C}
  ConstantFlow,                           !- Boiler Flow Mode
  0,                                      !- Parasitic Electric Load {W}
  1;                                      !- Sizing Factor

OS:Output:Variable,
  {45106904-0c43-49f4-9ac7-f4785edc6148}, !- Handle
  Output Variable 1,                      !- Name
  ,                                       !- Key Value
  Boiler Heating Rate,                    !- Variable Name
  Monthly;                                !- Reporting Frequency

