
OS:Version,
  {7ed87050-1776-4308-9b1b-a18c47ec4f03}, !- Handle
  2.4.0;                                  !- Version Identifier

! TrackingID:#[Rdzkf7]
OS:PlantLoop,
  {9a76bafe-2f65-4333-9284-699fa7c3d842}, !- Handle
  Plant Loop 1,                           !- Name
  ,                                       !- Fluid Type
  0,                                      !- Glycol Concentration
  ,                                       !- User Defined Fluid Type
  ,                                       !- Plant Equipment Operation Heating Load
  ,                                       !- Plant Equipment Operation Cooling Load
  ,                                       !- Primary Plant Equipment Operation Scheme
  {26652fde-92b4-4205-96c0-77ab0b6de08f}, !- Loop Temperature Setpoint Node Name
  ,                                       !- Maximum Loop Temperature {C}
  ,                                       !- Minimum Loop Temperature {C}
  ,                                       !- Maximum Loop Flow Rate {m3/s}
  ,                                       !- Minimum Loop Flow Rate {m3/s}
  Autocalculate,                          !- Plant Loop Volume {m3}
  {2e563e18-74f7-4175-b475-9149867e7d15}, !- Plant Side Inlet Node Name
  {8ff3d04a-39ee-4fd7-98f5-15a62cee3038}, !- Plant Side Outlet Node Name
  ,                                       !- Plant Side Branch List Name
  {66b83bc3-bcf7-4bb7-8de2-198bd80c514a}, !- Demand Side Inlet Node Name
  {489ca9b2-6970-4ea4-b146-d10bdcab3c73}, !- Demand Side Outlet Node Name
  ,                                       !- Demand Side Branch List Name
  ,                                       !- Demand Side Connector List Name
  Optimal,                                !- Load Distribution Scheme
  {ae4bb201-76f6-48b5-a87b-acd8faec27eb}, !- Availability Manager List Name
  ,                                       !- Plant Loop Demand Calculation Scheme
  ,                                       !- Common Pipe Simulation
  ,                                       !- Pressure Simulation Type
  ,                                       !- Plant Equipment Operation Heating Load Schedule
  ,                                       !- Plant Equipment Operation Cooling Load Schedule
  ,                                       !- Primary Plant Equipment Operation Scheme Schedule
  ,                                       !- Component Setpoint Operation Scheme Schedule
  {39807da1-feff-4c38-8d77-afd8b6f95517}, !- Demand Mixer Name
  {a45a2e0c-d011-44d7-b2d0-7d7347da8de0}, !- Demand Splitter Name
  {372b9693-b9ea-438d-a12c-9a4463db18a9}, !- Supply Mixer Name
  {ca15dec6-e755-4ef3-9f29-49a4025fa5f5}; !- Supply Splitter Name

OS:Sizing:Plant,
  {dbf9131b-a5af-4086-b0ac-dc3bf04a1838}, !- Handle
  {9a76bafe-2f65-4333-9284-699fa7c3d842}, !- Plant or Condenser Loop Name
  Heating,                                !- Loop Type
  82,                                     !- Design Loop Exit Temperature {C}
  11,                                     !- Loop Design Temperature Difference {deltaC}
  NonCoincident,                          !- Sizing Option
  1,                                      !- Zone Timesteps in Averaging Window
  None;                                   !- Coincident Sizing Factor Mode

OS:Node,
  {88e724de-8b4c-49aa-be7d-ade6ef7659ed}, !- Handle
  Node 1,                                 !- Name
  {2e563e18-74f7-4175-b475-9149867e7d15}, !- Inlet Port
  {917c9bef-7f03-416b-892f-bee8a8af298b}; !- Outlet Port

OS:Node,
  {26652fde-92b4-4205-96c0-77ab0b6de08f}, !- Handle
  Node 2,                                 !- Name
  {fb9a8c12-2521-4ef6-bcb0-cdb96aad1c2c}, !- Inlet Port
  {8ff3d04a-39ee-4fd7-98f5-15a62cee3038}; !- Outlet Port

OS:Node,
  {390a98bd-6e4a-4c28-9398-8b429c6eea02}, !- Handle
  Node 3,                                 !- Name
  {962eeb09-52c5-4eb8-8868-731bf26ba4fc}, !- Inlet Port
  {95bf6f29-7ea3-4ec1-8fdd-84d7a5aad297}; !- Outlet Port

OS:Connector:Mixer,
  {372b9693-b9ea-438d-a12c-9a4463db18a9}, !- Handle
  Connector Mixer 1,                      !- Name
  {fb9a8c12-2521-4ef6-bcb0-cdb96aad1c2c}, !- Outlet Branch Name
  {93322378-d51a-4690-bc8a-538aa190402f}; !- Inlet Branch Name 1

OS:Connector:Splitter,
  {ca15dec6-e755-4ef3-9f29-49a4025fa5f5}, !- Handle
  Connector Splitter 1,                   !- Name
  {917c9bef-7f03-416b-892f-bee8a8af298b}, !- Inlet Branch Name
  {962eeb09-52c5-4eb8-8868-731bf26ba4fc}; !- Outlet Branch Name 1

OS:Connection,
  {2e563e18-74f7-4175-b475-9149867e7d15}, !- Handle
  {b39e564a-55b7-472b-9c7b-cc4a063a242a}, !- Name
  {9a76bafe-2f65-4333-9284-699fa7c3d842}, !- Source Object
  14,                                     !- Outlet Port
  {88e724de-8b4c-49aa-be7d-ade6ef7659ed}, !- Target Object
  2;                                      !- Inlet Port

OS:Connection,
  {917c9bef-7f03-416b-892f-bee8a8af298b}, !- Handle
  {7eac3a25-751f-47e4-b700-034cb6e15a01}, !- Name
  {88e724de-8b4c-49aa-be7d-ade6ef7659ed}, !- Source Object
  3,                                      !- Outlet Port
  {ca15dec6-e755-4ef3-9f29-49a4025fa5f5}, !- Target Object
  2;                                      !- Inlet Port

OS:Connection,
  {962eeb09-52c5-4eb8-8868-731bf26ba4fc}, !- Handle
  {a65b7f03-e353-4d39-baaa-bc7fcf7b7489}, !- Name
  {ca15dec6-e755-4ef3-9f29-49a4025fa5f5}, !- Source Object
  3,                                      !- Outlet Port
  {390a98bd-6e4a-4c28-9398-8b429c6eea02}, !- Target Object
  2;                                      !- Inlet Port

OS:Connection,
  {fb9a8c12-2521-4ef6-bcb0-cdb96aad1c2c}, !- Handle
  {6aa9fbf0-c5b5-4cd2-b413-8c8cc7c23ac6}, !- Name
  {372b9693-b9ea-438d-a12c-9a4463db18a9}, !- Source Object
  2,                                      !- Outlet Port
  {26652fde-92b4-4205-96c0-77ab0b6de08f}, !- Target Object
  2;                                      !- Inlet Port

OS:Connection,
  {8ff3d04a-39ee-4fd7-98f5-15a62cee3038}, !- Handle
  {e4edf74d-fa5e-44e6-8a30-eb6164e5d43d}, !- Name
  {26652fde-92b4-4205-96c0-77ab0b6de08f}, !- Source Object
  3,                                      !- Outlet Port
  {9a76bafe-2f65-4333-9284-699fa7c3d842}, !- Target Object
  15;                                     !- Inlet Port

OS:Node,
  {d3cff6d3-5163-434d-bd37-74648061504d}, !- Handle
  Node 4,                                 !- Name
  {66b83bc3-bcf7-4bb7-8de2-198bd80c514a}, !- Inlet Port
  {aeb41d91-b865-446a-9c97-f07ca0acdce0}; !- Outlet Port

OS:Node,
  {c3b78d32-0dd8-4793-9ca1-2479c66ff714}, !- Handle
  Node 5,                                 !- Name
  {6800897f-c986-46e2-b668-bb49b635bb59}, !- Inlet Port
  {489ca9b2-6970-4ea4-b146-d10bdcab3c73}; !- Outlet Port

OS:Node,
  {d57c2a65-a0c7-429e-bc6e-247bf9ed67d2}, !- Handle
  Node 6,                                 !- Name
  {ea0b9b85-f6a5-4c7b-9206-cbedbc07009e}, !- Inlet Port
  {f2595465-a26c-4b9a-949f-8f541d036479}; !- Outlet Port

OS:Connector:Mixer,
  {39807da1-feff-4c38-8d77-afd8b6f95517}, !- Handle
  Connector Mixer 2,                      !- Name
  {6800897f-c986-46e2-b668-bb49b635bb59}, !- Outlet Branch Name
  {f2595465-a26c-4b9a-949f-8f541d036479}; !- Inlet Branch Name 1

OS:Connector:Splitter,
  {a45a2e0c-d011-44d7-b2d0-7d7347da8de0}, !- Handle
  Connector Splitter 2,                   !- Name
  {aeb41d91-b865-446a-9c97-f07ca0acdce0}, !- Inlet Branch Name
  {ea0b9b85-f6a5-4c7b-9206-cbedbc07009e}; !- Outlet Branch Name 1

OS:Connection,
  {66b83bc3-bcf7-4bb7-8de2-198bd80c514a}, !- Handle
  {76a3c5d1-08f2-4c17-8ced-0a44363f8b24}, !- Name
  {9a76bafe-2f65-4333-9284-699fa7c3d842}, !- Source Object
  17,                                     !- Outlet Port
  {d3cff6d3-5163-434d-bd37-74648061504d}, !- Target Object
  2;                                      !- Inlet Port

OS:Connection,
  {aeb41d91-b865-446a-9c97-f07ca0acdce0}, !- Handle
  {fb33c1a5-ea0d-4313-8e05-18d6a278bd77}, !- Name
  {d3cff6d3-5163-434d-bd37-74648061504d}, !- Source Object
  3,                                      !- Outlet Port
  {a45a2e0c-d011-44d7-b2d0-7d7347da8de0}, !- Target Object
  2;                                      !- Inlet Port

OS:Connection,
  {ea0b9b85-f6a5-4c7b-9206-cbedbc07009e}, !- Handle
  {1a95c1b3-ab09-46ce-9ed9-9c0a937de6c1}, !- Name
  {a45a2e0c-d011-44d7-b2d0-7d7347da8de0}, !- Source Object
  3,                                      !- Outlet Port
  {d57c2a65-a0c7-429e-bc6e-247bf9ed67d2}, !- Target Object
  2;                                      !- Inlet Port

OS:Connection,
  {f2595465-a26c-4b9a-949f-8f541d036479}, !- Handle
  {355e859d-9b20-480e-adf6-cc4b587d4fee}, !- Name
  {d57c2a65-a0c7-429e-bc6e-247bf9ed67d2}, !- Source Object
  3,                                      !- Outlet Port
  {39807da1-feff-4c38-8d77-afd8b6f95517}, !- Target Object
  3;                                      !- Inlet Port

OS:Connection,
  {6800897f-c986-46e2-b668-bb49b635bb59}, !- Handle
  {15499bf7-6cf0-42f4-b449-f03193e181b1}, !- Name
  {39807da1-feff-4c38-8d77-afd8b6f95517}, !- Source Object
  2,                                      !- Outlet Port
  {c3b78d32-0dd8-4793-9ca1-2479c66ff714}, !- Target Object
  2;                                      !- Inlet Port

OS:Connection,
  {489ca9b2-6970-4ea4-b146-d10bdcab3c73}, !- Handle
  {6b230c7e-44b8-4526-afdb-8716cf91a8a7}, !- Name
  {c3b78d32-0dd8-4793-9ca1-2479c66ff714}, !- Source Object
  3,                                      !- Outlet Port
  {9a76bafe-2f65-4333-9284-699fa7c3d842}, !- Target Object
  18;                                     !- Inlet Port

OS:AvailabilityManagerAssignmentList,
  {ae4bb201-76f6-48b5-a87b-acd8faec27eb}, !- Handle
  Plant Loop 1 AvailabilityManagerAssignmentList; !- Name

! TrackingID:#[hkhB7b]
OS:Sizing:Plant,
  {81087bab-c728-4ba2-ae61-f851b6a21ec4}, !- Handle
  {9a76bafe-2f65-4333-9284-699fa7c3d842}, !- Plant or Condenser Loop Name
  Heating,                                !- Loop Type
  82,                                     !- Design Loop Exit Temperature {C}
  11,                                     !- Loop Design Temperature Difference {deltaC}
  NonCoincident,                          !- Sizing Option
  1,                                      !- Zone Timesteps in Averaging Window
  None;                                   !- Coincident Sizing Factor Mode

! TrackingID:#[j9LT01]
OS:Chiller:Electric:EIR,
  {81208d79-467c-4640-a68e-fb609ad7843a}, !- Handle
  Chiller Electric EIR 1,                 !- Name
  Autosize,                               !- Reference Capacity {W}
  5.5,                                    !- Reference COP {W/W}
  ,                                       !- Reference Leaving Chilled Water Temperature {C}
  ,                                       !- Reference Entering Condenser Fluid Temperature {C}
  ,                                       !- Reference Chilled Water Flow Rate {m3/s}
  ,                                       !- Reference Condenser Fluid Flow Rate {m3/s}
  {fbcbfec5-ea61-4cc4-98fc-3828d1e2c0ae}, !- Cooling Capacity Function of Temperature Curve Name
  {3d9f32d7-e412-4e1a-8e00-6ef3b898e729}, !- Electric Input to Cooling Output Ratio Function of Temperature Curve Name
  {94460332-3c4a-4e5d-a34f-2fa411c6d6b6}, !- Electric Input to Cooling Output Ratio Function of Part Load Ratio Curve Name
  ,                                       !- Minimum Part Load Ratio
  ,                                       !- Maximum Part Load Ratio
  ,                                       !- Optimum Part Load Ratio
  ,                                       !- Minimum Unloading Ratio
  {95bf6f29-7ea3-4ec1-8fdd-84d7a5aad297}, !- Chilled Water Inlet Node Name
  {2909d23e-fb24-4715-8000-3ba205db1a4a}, !- Chilled Water Outlet Node Name
  {b38cf301-4f99-4d20-8c13-d0e46c0b1d35}, !- Condenser Inlet Node Name
  {e721c2f7-7cf4-4611-854f-c1075d62a9d4}, !- Condenser Outlet Node Name
  WaterCooled,                            !- Condenser Type
  ,                                       !- Condenser Fan Power Ratio {W/W}
  ,                                       !- Compressor Motor Efficiency
  ,                                       !- Leaving Chilled Water Lower Temperature Limit {C}
  ,                                       !- Chiller Flow Mode
  0,                                      !- Design Heat Recovery Water Flow Rate {m3/s}
  ,                                       !- Heat Recovery Inlet Node Name
  ,                                       !- Heat Recovery Outlet Node Name
  1,                                      !- Sizing Factor
  0,                                      !- Basin Heater Capacity {W/K}
  10,                                     !- Basin Heater Setpoint Temperature {C}
  ;                                       !- Basin Heater Operating Schedule Name

OS:Curve:Biquadratic,
  {fbcbfec5-ea61-4cc4-98fc-3828d1e2c0ae}, !- Handle
  Curve Biquadratic 1,                    !- Name
  1.0215158,                              !- Coefficient1 Constant
  0.037035864,                            !- Coefficient2 x
  0.0002332476,                           !- Coefficient3 x**2
  -0.003894048,                           !- Coefficient4 y
  -6.52536e-005,                          !- Coefficient5 y**2
  -0.0002680452,                          !- Coefficient6 x*y
  5,                                      !- Minimum Value of x
  10,                                     !- Maximum Value of x
  24,                                     !- Minimum Value of y
  35;                                     !- Maximum Value of y

OS:Curve:Biquadratic,
  {3d9f32d7-e412-4e1a-8e00-6ef3b898e729}, !- Handle
  Curve Biquadratic 2,                    !- Name
  0.70176857,                             !- Coefficient1 Constant
  -0.00452016,                            !- Coefficient2 x
  0.0005331096,                           !- Coefficient3 x**2
  -0.005498208,                           !- Coefficient4 y
  0.0005445792,                           !- Coefficient5 y**2
  -0.0007290324,                          !- Coefficient6 x*y
  5,                                      !- Minimum Value of x
  10,                                     !- Maximum Value of x
  24,                                     !- Minimum Value of y
  35;                                     !- Maximum Value of y

OS:Curve:Quadratic,
  {94460332-3c4a-4e5d-a34f-2fa411c6d6b6}, !- Handle
  Curve Quadratic 1,                      !- Name
  0.06369119,                             !- Coefficient1 Constant
  0.58488832,                             !- Coefficient2 x
  0.35280274,                             !- Coefficient3 x**2
  0,                                      !- Minimum Value of x
  1;                                      !- Maximum Value of x

OS:Node,
  {59a64c43-f9c4-4b7d-8bd4-9c0ddf38933b}, !- Handle
  Node 7,                                 !- Name
  {2909d23e-fb24-4715-8000-3ba205db1a4a}, !- Inlet Port
  {93322378-d51a-4690-bc8a-538aa190402f}; !- Outlet Port

OS:Connection,
  {95bf6f29-7ea3-4ec1-8fdd-84d7a5aad297}, !- Handle
  {24021df8-3fdb-40e1-b46d-5b8f730eadc8}, !- Name
  {390a98bd-6e4a-4c28-9398-8b429c6eea02}, !- Source Object
  3,                                      !- Outlet Port
  {81208d79-467c-4640-a68e-fb609ad7843a}, !- Target Object
  15;                                     !- Inlet Port

OS:Connection,
  {2909d23e-fb24-4715-8000-3ba205db1a4a}, !- Handle
  {59dcc100-2055-473a-8141-ff95fe74353e}, !- Name
  {81208d79-467c-4640-a68e-fb609ad7843a}, !- Source Object
  16,                                     !- Outlet Port
  {59a64c43-f9c4-4b7d-8bd4-9c0ddf38933b}, !- Target Object
  2;                                      !- Inlet Port

OS:Connection,
  {93322378-d51a-4690-bc8a-538aa190402f}, !- Handle
  {567b6bc4-830a-444a-a074-2b7ab469673e}, !- Name
  {59a64c43-f9c4-4b7d-8bd4-9c0ddf38933b}, !- Source Object
  3,                                      !- Outlet Port
  {372b9693-b9ea-438d-a12c-9a4463db18a9}, !- Target Object
  3;                                      !- Inlet Port

! TrackingID:#[DrHTWu]
OS:PlantLoop,
  {c97d2090-9d99-4b8b-891f-0db817553967}, !- Handle
  Plant Loop 2,                           !- Name
  ,                                       !- Fluid Type
  0,                                      !- Glycol Concentration
  ,                                       !- User Defined Fluid Type
  ,                                       !- Plant Equipment Operation Heating Load
  ,                                       !- Plant Equipment Operation Cooling Load
  ,                                       !- Primary Plant Equipment Operation Scheme
  {a68bc7ce-d10e-4cb3-a68a-3d8f3f19b68a}, !- Loop Temperature Setpoint Node Name
  ,                                       !- Maximum Loop Temperature {C}
  ,                                       !- Minimum Loop Temperature {C}
  ,                                       !- Maximum Loop Flow Rate {m3/s}
  ,                                       !- Minimum Loop Flow Rate {m3/s}
  Autocalculate,                          !- Plant Loop Volume {m3}
  {183e868c-72ba-4e19-832b-19571b2725d8}, !- Plant Side Inlet Node Name
  {94e65223-7398-42ad-8657-06b08eefd831}, !- Plant Side Outlet Node Name
  ,                                       !- Plant Side Branch List Name
  {eb931ff7-5648-4320-a686-c23c2f1da716}, !- Demand Side Inlet Node Name
  {c0fa3dac-524f-4e69-9fe5-d4b2ee13c245}, !- Demand Side Outlet Node Name
  ,                                       !- Demand Side Branch List Name
  ,                                       !- Demand Side Connector List Name
  Optimal,                                !- Load Distribution Scheme
  {3fe11897-3b44-44f2-add9-d1e79e66776d}, !- Availability Manager List Name
  ,                                       !- Plant Loop Demand Calculation Scheme
  ,                                       !- Common Pipe Simulation
  ,                                       !- Pressure Simulation Type
  ,                                       !- Plant Equipment Operation Heating Load Schedule
  ,                                       !- Plant Equipment Operation Cooling Load Schedule
  ,                                       !- Primary Plant Equipment Operation Scheme Schedule
  ,                                       !- Component Setpoint Operation Scheme Schedule
  {d10b0cad-a296-4125-8646-53a6beb275f9}, !- Demand Mixer Name
  {fbd52c74-8a72-437b-b06f-61515644cacf}, !- Demand Splitter Name
  {59bbe268-6744-4e67-983c-988b67af45b5}, !- Supply Mixer Name
  {31b65bc0-8b28-4877-9c91-b52a22f47974}; !- Supply Splitter Name

OS:Sizing:Plant,
  {8a6e2397-0567-47b2-8033-f3f2acf2890a}, !- Handle
  {c97d2090-9d99-4b8b-891f-0db817553967}, !- Plant or Condenser Loop Name
  Heating,                                !- Loop Type
  82,                                     !- Design Loop Exit Temperature {C}
  11,                                     !- Loop Design Temperature Difference {deltaC}
  NonCoincident,                          !- Sizing Option
  1,                                      !- Zone Timesteps in Averaging Window
  None;                                   !- Coincident Sizing Factor Mode

OS:Node,
  {a4f2bf34-5784-418b-b9c9-94fe0b2daf14}, !- Handle
  Node 8,                                 !- Name
  {183e868c-72ba-4e19-832b-19571b2725d8}, !- Inlet Port
  {b5612661-217c-400b-b27d-fc24543e56be}; !- Outlet Port

OS:Node,
  {a68bc7ce-d10e-4cb3-a68a-3d8f3f19b68a}, !- Handle
  Node 9,                                 !- Name
  {1caaec29-5988-4916-a987-7045c840d413}, !- Inlet Port
  {94e65223-7398-42ad-8657-06b08eefd831}; !- Outlet Port

OS:Node,
  {6fe847dd-65fc-41cf-a6d4-beff9d545bbd}, !- Handle
  Node 10,                                !- Name
  {03b53d68-c83c-4317-a542-986d3e66f411}, !- Inlet Port
  {ac9593a6-ca97-4c93-ac6f-ad7301f0c0a0}; !- Outlet Port

OS:Connector:Mixer,
  {59bbe268-6744-4e67-983c-988b67af45b5}, !- Handle
  Connector Mixer 3,                      !- Name
  {1caaec29-5988-4916-a987-7045c840d413}, !- Outlet Branch Name
  {ac9593a6-ca97-4c93-ac6f-ad7301f0c0a0}; !- Inlet Branch Name 1

OS:Connector:Splitter,
  {31b65bc0-8b28-4877-9c91-b52a22f47974}, !- Handle
  Connector Splitter 3,                   !- Name
  {b5612661-217c-400b-b27d-fc24543e56be}, !- Inlet Branch Name
  {03b53d68-c83c-4317-a542-986d3e66f411}; !- Outlet Branch Name 1

OS:Connection,
  {183e868c-72ba-4e19-832b-19571b2725d8}, !- Handle
  {b8047578-c0a3-46f0-a214-9b9e051aafd0}, !- Name
  {c97d2090-9d99-4b8b-891f-0db817553967}, !- Source Object
  14,                                     !- Outlet Port
  {a4f2bf34-5784-418b-b9c9-94fe0b2daf14}, !- Target Object
  2;                                      !- Inlet Port

OS:Connection,
  {b5612661-217c-400b-b27d-fc24543e56be}, !- Handle
  {49976595-c4e1-429c-8c6a-b2bba0610466}, !- Name
  {a4f2bf34-5784-418b-b9c9-94fe0b2daf14}, !- Source Object
  3,                                      !- Outlet Port
  {31b65bc0-8b28-4877-9c91-b52a22f47974}, !- Target Object
  2;                                      !- Inlet Port

OS:Connection,
  {03b53d68-c83c-4317-a542-986d3e66f411}, !- Handle
  {29d81bd3-604a-41b9-b263-4cf65aa0fccc}, !- Name
  {31b65bc0-8b28-4877-9c91-b52a22f47974}, !- Source Object
  3,                                      !- Outlet Port
  {6fe847dd-65fc-41cf-a6d4-beff9d545bbd}, !- Target Object
  2;                                      !- Inlet Port

OS:Connection,
  {ac9593a6-ca97-4c93-ac6f-ad7301f0c0a0}, !- Handle
  {1c234452-4645-46f2-9144-60cf69ee0ae0}, !- Name
  {6fe847dd-65fc-41cf-a6d4-beff9d545bbd}, !- Source Object
  3,                                      !- Outlet Port
  {59bbe268-6744-4e67-983c-988b67af45b5}, !- Target Object
  3;                                      !- Inlet Port

OS:Connection,
  {1caaec29-5988-4916-a987-7045c840d413}, !- Handle
  {e7e1b2de-82f3-4a6b-aacc-14887f277300}, !- Name
  {59bbe268-6744-4e67-983c-988b67af45b5}, !- Source Object
  2,                                      !- Outlet Port
  {a68bc7ce-d10e-4cb3-a68a-3d8f3f19b68a}, !- Target Object
  2;                                      !- Inlet Port

OS:Connection,
  {94e65223-7398-42ad-8657-06b08eefd831}, !- Handle
  {4314923b-7be1-4cf6-8ddb-54f0368fbd04}, !- Name
  {a68bc7ce-d10e-4cb3-a68a-3d8f3f19b68a}, !- Source Object
  3,                                      !- Outlet Port
  {c97d2090-9d99-4b8b-891f-0db817553967}, !- Target Object
  15;                                     !- Inlet Port

OS:Node,
  {c055423d-b3c3-4fbb-932a-ad200f8b8029}, !- Handle
  Node 11,                                !- Name
  {eb931ff7-5648-4320-a686-c23c2f1da716}, !- Inlet Port
  {7d83d3f6-04b6-425a-a649-7361496d01b3}; !- Outlet Port

OS:Node,
  {67371511-b4fe-46df-be67-c36e9746ffb8}, !- Handle
  Node 12,                                !- Name
  {930b46d3-28e0-4977-939b-18457c8b3270}, !- Inlet Port
  {c0fa3dac-524f-4e69-9fe5-d4b2ee13c245}; !- Outlet Port

OS:Node,
  {5480d088-14a9-4b60-aa26-ddb2bbb7fab1}, !- Handle
  Node 13,                                !- Name
  {1bea30c8-bd9f-491e-a130-54bc565d467f}, !- Inlet Port
  {b38cf301-4f99-4d20-8c13-d0e46c0b1d35}; !- Outlet Port

OS:Connector:Mixer,
  {d10b0cad-a296-4125-8646-53a6beb275f9}, !- Handle
  Connector Mixer 4,                      !- Name
  {930b46d3-28e0-4977-939b-18457c8b3270}, !- Outlet Branch Name
  {9cda8c40-45ed-40be-bc99-c5761438e37c}; !- Inlet Branch Name 1

OS:Connector:Splitter,
  {fbd52c74-8a72-437b-b06f-61515644cacf}, !- Handle
  Connector Splitter 4,                   !- Name
  {7d83d3f6-04b6-425a-a649-7361496d01b3}, !- Inlet Branch Name
  {1bea30c8-bd9f-491e-a130-54bc565d467f}; !- Outlet Branch Name 1

OS:Connection,
  {eb931ff7-5648-4320-a686-c23c2f1da716}, !- Handle
  {e751c421-e67a-45cc-9564-56de0c9e8777}, !- Name
  {c97d2090-9d99-4b8b-891f-0db817553967}, !- Source Object
  17,                                     !- Outlet Port
  {c055423d-b3c3-4fbb-932a-ad200f8b8029}, !- Target Object
  2;                                      !- Inlet Port

OS:Connection,
  {7d83d3f6-04b6-425a-a649-7361496d01b3}, !- Handle
  {91550dde-7cf6-44e1-a89a-2e442b2cd45c}, !- Name
  {c055423d-b3c3-4fbb-932a-ad200f8b8029}, !- Source Object
  3,                                      !- Outlet Port
  {fbd52c74-8a72-437b-b06f-61515644cacf}, !- Target Object
  2;                                      !- Inlet Port

OS:Connection,
  {1bea30c8-bd9f-491e-a130-54bc565d467f}, !- Handle
  {ba983382-19c9-465b-a034-32de3d9b02fa}, !- Name
  {fbd52c74-8a72-437b-b06f-61515644cacf}, !- Source Object
  3,                                      !- Outlet Port
  {5480d088-14a9-4b60-aa26-ddb2bbb7fab1}, !- Target Object
  2;                                      !- Inlet Port

OS:Connection,
  {930b46d3-28e0-4977-939b-18457c8b3270}, !- Handle
  {ca773131-e981-4765-a061-c4627643dea2}, !- Name
  {d10b0cad-a296-4125-8646-53a6beb275f9}, !- Source Object
  2,                                      !- Outlet Port
  {67371511-b4fe-46df-be67-c36e9746ffb8}, !- Target Object
  2;                                      !- Inlet Port

OS:Connection,
  {c0fa3dac-524f-4e69-9fe5-d4b2ee13c245}, !- Handle
  {799144a9-838d-45f4-8e54-a2fc329792da}, !- Name
  {67371511-b4fe-46df-be67-c36e9746ffb8}, !- Source Object
  3,                                      !- Outlet Port
  {c97d2090-9d99-4b8b-891f-0db817553967}, !- Target Object
  18;                                     !- Inlet Port

OS:AvailabilityManagerAssignmentList,
  {3fe11897-3b44-44f2-add9-d1e79e66776d}, !- Handle
  Plant Loop 2 AvailabilityManagerAssignmentList; !- Name

! TrackingID:#[NtnTji]
OS:Sizing:Plant,
  {3464d9d4-ecc7-47a5-bf68-7481546479e8}, !- Handle
  {c97d2090-9d99-4b8b-891f-0db817553967}, !- Plant or Condenser Loop Name
  Heating,                                !- Loop Type
  82,                                     !- Design Loop Exit Temperature {C}
  11,                                     !- Loop Design Temperature Difference {deltaC}
  NonCoincident,                          !- Sizing Option
  1,                                      !- Zone Timesteps in Averaging Window
  None;                                   !- Coincident Sizing Factor Mode

OS:Node,
  {f233a026-0e36-4e4f-afc6-a5e63418ab6c}, !- Handle
  Node 14,                                !- Name
  {e721c2f7-7cf4-4611-854f-c1075d62a9d4}, !- Inlet Port
  {9cda8c40-45ed-40be-bc99-c5761438e37c}; !- Outlet Port

OS:Connection,
  {b38cf301-4f99-4d20-8c13-d0e46c0b1d35}, !- Handle
  {a8ae1f50-3cd8-4a2e-b0cf-8bcbcaeb80c8}, !- Name
  {5480d088-14a9-4b60-aa26-ddb2bbb7fab1}, !- Source Object
  3,                                      !- Outlet Port
  {81208d79-467c-4640-a68e-fb609ad7843a}, !- Target Object
  17;                                     !- Inlet Port

OS:Connection,
  {e721c2f7-7cf4-4611-854f-c1075d62a9d4}, !- Handle
  {5668b264-3491-47dc-a09c-5ac4b8e01f9e}, !- Name
  {81208d79-467c-4640-a68e-fb609ad7843a}, !- Source Object
  18,                                     !- Outlet Port
  {f233a026-0e36-4e4f-afc6-a5e63418ab6c}, !- Target Object
  2;                                      !- Inlet Port

OS:Connection,
  {9cda8c40-45ed-40be-bc99-c5761438e37c}, !- Handle
  {98ed6170-6f5a-4318-be67-0a42aea761d3}, !- Name
  {f233a026-0e36-4e4f-afc6-a5e63418ab6c}, !- Source Object
  3,                                      !- Outlet Port
  {d10b0cad-a296-4125-8646-53a6beb275f9}, !- Target Object
  3;                                      !- Inlet Port

