
OS:Version,
  {12e96f02-aa32-4392-9cba-980439b21a66}, !- Handle
  2.4.0;                                  !- Version Identifier

OS:AirLoopHVAC,
  {16912052-703f-46ce-b77d-db9892cabfd9}, !- Handle
  Air Loop HVAC 1,                        !- Name
  ,                                       !- Controller List Name
  {392ebfdd-379f-48ea-87f5-a6037ca49c55}, !- Availability Schedule
  {b89683b5-d1ff-44ff-af64-de0e88d4fc98}, !- Availability Manager List Name
  AutoSize,                               !- Design Supply Air Flow Rate {m3/s}
  ,                                       !- Branch List Name
  ,                                       !- Connector List Name
  {91d5271f-aafe-478a-9df9-c471c32e2863}, !- Supply Side Inlet Node Name
  {3cef7b79-a3f9-4026-89b1-95014308ad44}, !- Demand Side Outlet Node Name
  {7ae87cf9-fd21-45d8-9591-72655033dee7}, !- Demand Side Inlet Node A
  {2f1f6ec9-57fc-4234-a24e-1bbfd21570ba}, !- Supply Side Outlet Node A
  ,                                       !- Demand Side Inlet Node B
  ,                                       !- Supply Side Outlet Node B
  ,                                       !- Return Air Bypass Flow Temperature Setpoint Schedule Name
  {1cdf5747-c281-4bbe-b465-755ec5c5fa50}, !- Demand Mixer Name
  {170f6c00-ed66-4972-ab46-ec08aaf95032}, !- Demand Splitter A Name
  ,                                       !- Demand Splitter B Name
  ;                                       !- Supply Splitter Name

OS:Node,
  {c6fdc63e-6ad8-4b55-9228-ded2b6ba0192}, !- Handle
  Node 1,                                 !- Name
  {91d5271f-aafe-478a-9df9-c471c32e2863}, !- Inlet Port
  {33a5b249-6246-4b9f-b3f6-1fbb4ff2212d}; !- Outlet Port

OS:Node,
  {9dc3e9b1-0908-4d6c-acea-ebfbf2f8143e}, !- Handle
  Node 2,                                 !- Name
  {b4be6d1c-e00c-4fd4-8b7e-29a87b2cbf94}, !- Inlet Port
  {2f1f6ec9-57fc-4234-a24e-1bbfd21570ba}; !- Outlet Port

OS:Connection,
  {91d5271f-aafe-478a-9df9-c471c32e2863}, !- Handle
  {fc7fe434-4d57-489e-8eb4-73e43751e0ec}, !- Name
  {16912052-703f-46ce-b77d-db9892cabfd9}, !- Source Object
  8,                                      !- Outlet Port
  {c6fdc63e-6ad8-4b55-9228-ded2b6ba0192}, !- Target Object
  2;                                      !- Inlet Port

OS:Connection,
  {2f1f6ec9-57fc-4234-a24e-1bbfd21570ba}, !- Handle
  {8fe1ebd8-8358-4f2d-aba4-b2966ca86bf8}, !- Name
  {9dc3e9b1-0908-4d6c-acea-ebfbf2f8143e}, !- Source Object
  3,                                      !- Outlet Port
  {16912052-703f-46ce-b77d-db9892cabfd9}, !- Target Object
  11;                                     !- Inlet Port

OS:Node,
  {1f8f6e61-7fb5-4874-abb7-3d50561827b5}, !- Handle
  Node 3,                                 !- Name
  {7ae87cf9-fd21-45d8-9591-72655033dee7}, !- Inlet Port
  {84199fa7-dd87-4d26-b1d6-1467924c967b}; !- Outlet Port

OS:Node,
  {9dfa48d2-3be0-42df-99b0-ab185910efb5}, !- Handle
  Node 4,                                 !- Name
  {17a1a292-41d7-4366-8112-f17243559558}, !- Inlet Port
  {3cef7b79-a3f9-4026-89b1-95014308ad44}; !- Outlet Port

OS:Node,
  {9e9fedb6-62e2-42f3-9d68-95426ab76266}, !- Handle
  Node 5,                                 !- Name
  {f42bf353-7411-4993-ad05-796cfdc80d08}, !- Inlet Port
  {c97f3c7b-016d-4972-8728-8d5e2c189cef}; !- Outlet Port

OS:Connection,
  {7ae87cf9-fd21-45d8-9591-72655033dee7}, !- Handle
  {4be0164b-637b-4043-85e6-c94979c796df}, !- Name
  {16912052-703f-46ce-b77d-db9892cabfd9}, !- Source Object
  10,                                     !- Outlet Port
  {1f8f6e61-7fb5-4874-abb7-3d50561827b5}, !- Target Object
  2;                                      !- Inlet Port

OS:Connection,
  {3cef7b79-a3f9-4026-89b1-95014308ad44}, !- Handle
  {43218ea0-a3c5-490e-8c9f-f1f4564d5f03}, !- Name
  {9dfa48d2-3be0-42df-99b0-ab185910efb5}, !- Source Object
  3,                                      !- Outlet Port
  {16912052-703f-46ce-b77d-db9892cabfd9}, !- Target Object
  9;                                      !- Inlet Port

OS:AirLoopHVAC:ZoneSplitter,
  {170f6c00-ed66-4972-ab46-ec08aaf95032}, !- Handle
  Air Loop HVAC Zone Splitter 1,          !- Name
  {84199fa7-dd87-4d26-b1d6-1467924c967b}, !- Inlet Node Name
  {f42bf353-7411-4993-ad05-796cfdc80d08}; !- Outlet Node Name 1

OS:AirLoopHVAC:ZoneMixer,
  {1cdf5747-c281-4bbe-b465-755ec5c5fa50}, !- Handle
  Air Loop HVAC Zone Mixer 1,             !- Name
  {17a1a292-41d7-4366-8112-f17243559558}, !- Outlet Node Name
  {c97f3c7b-016d-4972-8728-8d5e2c189cef}; !- Inlet Node Name 1

OS:Connection,
  {84199fa7-dd87-4d26-b1d6-1467924c967b}, !- Handle
  {a6fe2d95-850f-40ec-8534-e47598f0ea9b}, !- Name
  {1f8f6e61-7fb5-4874-abb7-3d50561827b5}, !- Source Object
  3,                                      !- Outlet Port
  {170f6c00-ed66-4972-ab46-ec08aaf95032}, !- Target Object
  2;                                      !- Inlet Port

OS:Connection,
  {f42bf353-7411-4993-ad05-796cfdc80d08}, !- Handle
  {f6d66404-00d2-4e26-a34e-58b57ff2cf00}, !- Name
  {170f6c00-ed66-4972-ab46-ec08aaf95032}, !- Source Object
  3,                                      !- Outlet Port
  {9e9fedb6-62e2-42f3-9d68-95426ab76266}, !- Target Object
  2;                                      !- Inlet Port

OS:Connection,
  {c97f3c7b-016d-4972-8728-8d5e2c189cef}, !- Handle
  {bcab4c22-f696-46ce-90cb-e01e36c34321}, !- Name
  {9e9fedb6-62e2-42f3-9d68-95426ab76266}, !- Source Object
  3,                                      !- Outlet Port
  {1cdf5747-c281-4bbe-b465-755ec5c5fa50}, !- Target Object
  3;                                      !- Inlet Port

OS:Connection,
  {17a1a292-41d7-4366-8112-f17243559558}, !- Handle
  {ebdd46b0-7940-467b-a9da-690ca72f8994}, !- Name
  {1cdf5747-c281-4bbe-b465-755ec5c5fa50}, !- Source Object
  2,                                      !- Outlet Port
  {9dfa48d2-3be0-42df-99b0-ab185910efb5}, !- Target Object
  2;                                      !- Inlet Port

OS:Sizing:System,
  {6735c0bb-1183-422d-ae6c-53886e7d387a}, !- Handle
  {16912052-703f-46ce-b77d-db9892cabfd9}, !- AirLoop Name
  Sensible,                               !- Type of Load to Size On
  Autosize,                               !- Design Outdoor Air Flow Rate {m3/s}
  0.3,                                    !- Minimum System Air Flow Ratio
  7,                                      !- Preheat Design Temperature {C}
  0.008,                                  !- Preheat Design Humidity Ratio {kg-H2O/kg-Air}
  12.8,                                   !- Precool Design Temperature {C}
  0.008,                                  !- Precool Design Humidity Ratio {kg-H2O/kg-Air}
  12.8,                                   !- Central Cooling Design Supply Air Temperature {C}
  16.7,                                   !- Central Heating Design Supply Air Temperature {C}
  NonCoincident,                          !- Sizing Option
  Yes,                                    !- 100% Outdoor Air in Cooling
  Yes,                                    !- 100% Outdoor Air in Heating
  0.0085,                                 !- Central Cooling Design Supply Air Humidity Ratio {kg-H2O/kg-Air}
  0.008,                                  !- Central Heating Design Supply Air Humidity Ratio {kg-H2O/kg-Air}
  DesignDay,                              !- Cooling Design Air Flow Method
  0,                                      !- Cooling Design Air Flow Rate {m3/s}
  DesignDay,                              !- Heating Design Air Flow Method
  0,                                      !- Heating Design Air Flow Rate {m3/s}
  ZoneSum,                                !- System Outdoor Air Method
  1,                                      !- Zone Maximum Outdoor Air Fraction {dimensionless}
  0.0099676501,                           !- Cooling Supply Air Flow Rate Per Floor Area {m3/s-m2}
  1,                                      !- Cooling Fraction of Autosized Cooling Supply Air Flow Rate
  3.9475456e-005,                         !- Cooling Supply Air Flow Rate Per Unit Cooling Capacity {m3/s-W}
  0.0099676501,                           !- Heating Supply Air Flow Rate Per Floor Area {m3/s-m2}
  1,                                      !- Heating Fraction of Autosized Heating Supply Air Flow Rate
  1,                                      !- Heating Fraction of Autosized Cooling Supply Air Flow Rate
  3.1588213e-005,                         !- Heating Supply Air Flow Rate Per Unit Heating Capacity {m3/s-W}
  CoolingDesignCapacity,                  !- Cooling Design Capacity Method
  autosize,                               !- Cooling Design Capacity {W}
  234.7,                                  !- Cooling Design Capacity Per Floor Area {W/m2}
  1,                                      !- Fraction of Autosized Cooling Design Capacity
  HeatingDesignCapacity,                  !- Heating Design Capacity Method
  autosize,                               !- Heating Design Capacity {W}
  157,                                    !- Heating Design Capacity Per Floor Area {W/m2}
  1,                                      !- Fraction of Autosized Heating Design Capacity
  OnOff;                                  !- Central Cooling Capacity Control Method

OS:Schedule:Constant,
  {392ebfdd-379f-48ea-87f5-a6037ca49c55}, !- Handle
  Always On Discrete,                     !- Name
  {674f668d-bbfb-43ec-a123-9f4dda4017ef}, !- Schedule Type Limits Name
  1;                                      !- Value

OS:ScheduleTypeLimits,
  {674f668d-bbfb-43ec-a123-9f4dda4017ef}, !- Handle
  OnOff,                                  !- Name
  0,                                      !- Lower Limit Value
  1,                                      !- Upper Limit Value
  Discrete,                               !- Numeric Type
  Availability;                           !- Unit Type

OS:AvailabilityManagerAssignmentList,
  {b89683b5-d1ff-44ff-af64-de0e88d4fc98}, !- Handle
  Air Loop HVAC 1 AvailabilityManagerAssignmentList; !- Name

OS:Coil:Heating:Water,
  {cb40878c-0313-4665-b4d7-f8b0c8d4afd9}, !- Handle
  Coil Heating Water 1[#TwBWOb],          !- Name
  {392ebfdd-379f-48ea-87f5-a6037ca49c55}, !- Availability Schedule Name
  ,                                       !- U-Factor Times Area Value {W/K}
  ,                                       !- Maximum Water Flow Rate {m3/s}
  ,                                       !- Water Inlet Node Name
  ,                                       !- Water Outlet Node Name
  {33a5b249-6246-4b9f-b3f6-1fbb4ff2212d}, !- Air Inlet Node Name
  {b4be6d1c-e00c-4fd4-8b7e-29a87b2cbf94}, !- Air Outlet Node Name
  ,                                       !- Performance Input Method
  ,                                       !- Rated Capacity {W}
  ,                                       !- Rated Inlet Water Temperature {C}
  ,                                       !- Rated Inlet Air Temperature {C}
  ,                                       !- Rated Outlet Water Temperature {C}
  ,                                       !- Rated Outlet Air Temperature {C}
  ;                                       !- Rated Ratio for Air and Water Convection

OS:Connection,
  {33a5b249-6246-4b9f-b3f6-1fbb4ff2212d}, !- Handle
  {cd7351e6-1edf-496d-8532-ef68e7ecf5df}, !- Name
  {c6fdc63e-6ad8-4b55-9228-ded2b6ba0192}, !- Source Object
  3,                                      !- Outlet Port
  {cb40878c-0313-4665-b4d7-f8b0c8d4afd9}, !- Target Object
  7;                                      !- Inlet Port

OS:Connection,
  {b4be6d1c-e00c-4fd4-8b7e-29a87b2cbf94}, !- Handle
  {f5a9dec5-72c9-4ff5-81c9-1f0a0a4b57e2}, !- Name
  {cb40878c-0313-4665-b4d7-f8b0c8d4afd9}, !- Source Object
  8,                                      !- Outlet Port
  {9dc3e9b1-0908-4d6c-acea-ebfbf2f8143e}, !- Target Object
  2;                                      !- Inlet Port

