
OS:Version,
  {54ba59c0-da3e-4770-bbb5-6626962e14aa}, !- Handle
  2.4.0;                                  !- Version Identifier

OS:Site,
  {05434a70-62c7-4503-8c48-b541842c670a}, !- Handle
  Site 1,                                 !- Name
  ,                                       !- Latitude {deg}
  ,                                       !- Longitude {deg}
  ,                                       !- Time Zone {hr}
  ,                                       !- Elevation {m}
  ;                                       !- Terrain

OS:YearDescription,
  {eeb90ec8-73ea-4ede-a080-cfdfb7e9c631}; !- Handle

OS:ClimateZones,
  {ed5ef348-ff69-4d27-a05b-e41e88caa7cb}, !- Handle
  ,                                       !- Active Institution
  ,                                       !- Active Year
  ,                                       !- Climate Zone Institution Name 1
  ,                                       !- Climate Zone Document Name 1
  ,                                       !- Climate Zone Document Year 1
  ,                                       !- Climate Zone Value 1
  CEC,                                    !- Climate Zone Institution Name 2
  California Climate Zone Descriptions,   !- Climate Zone Document Name 2
  1995,                                   !- Climate Zone Document Year 2
  ;                                       !- Climate Zone Value 2

OS:Building,
  {b8cf50c0-3e97-426a-ba79-cd88094c77a7}, !- Handle
  Building 1,                             !- Name
  ,                                       !- Building Sector Type
  ,                                       !- North Axis {deg}
  ,                                       !- Nominal Floor to Floor Height {m}
  ,                                       !- Space Type Name
  ,                                       !- Default Construction Set Name
  ;                                       !- Default Schedule Set Name

OS:Facility,
  {1d179c43-e4f0-4e1d-8425-b684445b13ec}; !- Handle

OS:SimulationControl,
  {2f9ec432-9d60-4970-9c33-fd7721e93bb5}; !- Handle

OS:Sizing:Parameters,
  {df7e76a6-f899-4e5d-aa7f-14c9514bc240}, !- Handle
  1.25,                                   !- Heating Sizing Factor
  1.15;                                   !- Cooling Sizing Factor

OS:Timestep,
  {875f92db-3925-41cd-88f0-653912d7d558}, !- Handle
  6;                                      !- Number of Timesteps per Hour

OS:ShadowCalculation,
  {4caa93f5-5e24-45ca-ab7b-b87bb9051f83}, !- Handle
  20,                                     !- Calculation Frequency
  15000;                                  !- Maximum Figures in Shadow Overlap Calculations

OS:HeatBalanceAlgorithm,
  {643096b3-5938-4c49-b35e-ccf434c56d5f}, !- Handle
  ConductionTransferFunction,             !- Algorithm
  200;                                    !- Surface Temperature Upper Limit {C}

OS:RunPeriod,
  {7fd01dbe-5dec-410e-b008-32ffb319efa8}, !- Handle
  Run Period 1,                           !- Name
  1,                                      !- Begin Month
  1,                                      !- Begin Day of Month
  12,                                     !- End Month
  31,                                     !- End Day of Month
  ,                                       !- Use Weather File Holidays and Special Days
  ,                                       !- Use Weather File Daylight Saving Period
  ,                                       !- Apply Weekend Holiday Rule
  ,                                       !- Use Weather File Rain Indicators
  ,                                       !- Use Weather File Snow Indicators
  ;                                       !- Number of Times Runperiod to be Repeated

OS:LifeCycleCost:Parameters,
  {ebe5a6d1-7b0d-400d-976d-638e1cc9a5fe}, !- Handle
  ,                                       !- Analysis Type
  ,                                       !- Discounting Convention
  ,                                       !- Inflation Approach
  ,                                       !- Real Discount Rate
  ,                                       !- Nominal Discount Rate
  ,                                       !- Inflation
  ,                                       !- Base Date Month
  ,                                       !- Base Date Year
  ,                                       !- Service Date Month
  ,                                       !- Service Date Year
  ;                                       !- Length of Study Period in Years

OS:AirLoopHVAC,
  {f106a42a-26f8-4b4b-80db-16af689589e3}, !- Handle
  _VAV with Reheat,                       !- Name
  ,                                       !- Controller List Name
  {579c8354-18bf-48b3-80a2-61bc40f1fd2d}, !- Availability Schedule
  {dfdc3fc7-d4fb-4574-8435-752397c72ad9}, !- Availability Manager List Name
  AutoSize,                               !- Design Supply Air Flow Rate {m3/s}
  ,                                       !- Branch List Name
  ,                                       !- Connector List Name
  {fbde9203-216d-45c1-b436-2c3294eaaa81}, !- Supply Side Inlet Node Name
  {b6d79c2f-fded-4e8a-b687-cfb89e5496dc}, !- Demand Side Outlet Node Name
  {f9496db2-a75d-49d2-97c7-d21710d36106}, !- Demand Side Inlet Node A
  {7c6317d1-db16-4415-b0e7-2c5d78809949}, !- Supply Side Outlet Node A
  ,                                       !- Demand Side Inlet Node B
  ,                                       !- Supply Side Outlet Node B
  ,                                       !- Return Air Bypass Flow Temperature Setpoint Schedule Name
  {4290ba2e-1cef-4f00-b609-ef2073d6d1de}, !- Demand Mixer Name
  {d52891c3-f71f-4be7-a0fc-328a3c317246}, !- Demand Splitter A Name
  ,                                       !- Demand Splitter B Name
  ;                                       !- Supply Splitter Name

OS:Node,
  {f4100c6a-62a2-42b0-a04c-14a82ef524af}, !- Handle
  Node 1,                                 !- Name
  {fbde9203-216d-45c1-b436-2c3294eaaa81}, !- Inlet Port
  {46bb2320-265c-4543-9d35-1bc277d8d78e}; !- Outlet Port

OS:Node,
  {a9042350-2860-4205-89c7-b12f6757f610}, !- Handle
  Node 2,                                 !- Name
  {5a9c5e84-1bcf-4f9d-9a83-9c789c83cae5}, !- Inlet Port
  {7c6317d1-db16-4415-b0e7-2c5d78809949}; !- Outlet Port

OS:Connection,
  {fbde9203-216d-45c1-b436-2c3294eaaa81}, !- Handle
  {024a1453-3793-4b17-82ab-48e7760afcfa}, !- Name
  {f106a42a-26f8-4b4b-80db-16af689589e3}, !- Source Object
  8,                                      !- Outlet Port
  {f4100c6a-62a2-42b0-a04c-14a82ef524af}, !- Target Object
  2;                                      !- Inlet Port

OS:Connection,
  {7c6317d1-db16-4415-b0e7-2c5d78809949}, !- Handle
  {1159edd7-d1bc-4772-888d-c4cda240cc95}, !- Name
  {a9042350-2860-4205-89c7-b12f6757f610}, !- Source Object
  3,                                      !- Outlet Port
  {f106a42a-26f8-4b4b-80db-16af689589e3}, !- Target Object
  11;                                     !- Inlet Port

OS:Node,
  {03adb1c9-7911-4418-94d5-ee32b2e9a178}, !- Handle
  Node 3,                                 !- Name
  {f9496db2-a75d-49d2-97c7-d21710d36106}, !- Inlet Port
  {80479804-3eee-42c6-b6f1-74fa14647a44}; !- Outlet Port

OS:Node,
  {426409d7-09bf-4203-849a-21e203a11f97}, !- Handle
  Node 4,                                 !- Name
  {f6fc9bab-ddb7-47e2-8e50-a791dd8c7884}, !- Inlet Port
  {b6d79c2f-fded-4e8a-b687-cfb89e5496dc}; !- Outlet Port

OS:Node,
  {10b87824-0263-4a53-a5f3-39f8c405652b}, !- Handle
  Node 5,                                 !- Name
  {0662f26d-07d1-47b8-a9e0-5bda33793db6}, !- Inlet Port
  {f1a4fdcd-47e5-46e2-93f6-43a5b4de1157}; !- Outlet Port

OS:Connection,
  {f9496db2-a75d-49d2-97c7-d21710d36106}, !- Handle
  {629701db-3a57-40f3-bfb0-6f13d11cc54c}, !- Name
  {f106a42a-26f8-4b4b-80db-16af689589e3}, !- Source Object
  10,                                     !- Outlet Port
  {03adb1c9-7911-4418-94d5-ee32b2e9a178}, !- Target Object
  2;                                      !- Inlet Port

OS:Connection,
  {b6d79c2f-fded-4e8a-b687-cfb89e5496dc}, !- Handle
  {a4e7cf25-b3cc-49ed-92b1-114bc793cf74}, !- Name
  {426409d7-09bf-4203-849a-21e203a11f97}, !- Source Object
  3,                                      !- Outlet Port
  {f106a42a-26f8-4b4b-80db-16af689589e3}, !- Target Object
  9;                                      !- Inlet Port

OS:AirLoopHVAC:ZoneSplitter,
  {d52891c3-f71f-4be7-a0fc-328a3c317246}, !- Handle
  Air Loop HVAC Zone Splitter 1,          !- Name
  {80479804-3eee-42c6-b6f1-74fa14647a44}, !- Inlet Node Name
  {0662f26d-07d1-47b8-a9e0-5bda33793db6}; !- Outlet Node Name 1

OS:AirLoopHVAC:ZoneMixer,
  {4290ba2e-1cef-4f00-b609-ef2073d6d1de}, !- Handle
  Air Loop HVAC Zone Mixer 1,             !- Name
  {f6fc9bab-ddb7-47e2-8e50-a791dd8c7884}, !- Outlet Node Name
  {f1a4fdcd-47e5-46e2-93f6-43a5b4de1157}; !- Inlet Node Name 1

OS:Connection,
  {80479804-3eee-42c6-b6f1-74fa14647a44}, !- Handle
  {45c62805-1374-458f-b032-8f3d7efa72bc}, !- Name
  {03adb1c9-7911-4418-94d5-ee32b2e9a178}, !- Source Object
  3,                                      !- Outlet Port
  {d52891c3-f71f-4be7-a0fc-328a3c317246}, !- Target Object
  2;                                      !- Inlet Port

OS:Connection,
  {0662f26d-07d1-47b8-a9e0-5bda33793db6}, !- Handle
  {27a8ae5a-7ef8-40be-9a2c-859f3c8902df}, !- Name
  {d52891c3-f71f-4be7-a0fc-328a3c317246}, !- Source Object
  3,                                      !- Outlet Port
  {10b87824-0263-4a53-a5f3-39f8c405652b}, !- Target Object
  2;                                      !- Inlet Port

OS:Connection,
  {f1a4fdcd-47e5-46e2-93f6-43a5b4de1157}, !- Handle
  {0ff311c2-042d-4464-924d-adbd115c7b86}, !- Name
  {10b87824-0263-4a53-a5f3-39f8c405652b}, !- Source Object
  3,                                      !- Outlet Port
  {4290ba2e-1cef-4f00-b609-ef2073d6d1de}, !- Target Object
  3;                                      !- Inlet Port

OS:Connection,
  {f6fc9bab-ddb7-47e2-8e50-a791dd8c7884}, !- Handle
  {142129fc-7c0c-4448-9ad7-5b5fab124fe8}, !- Name
  {4290ba2e-1cef-4f00-b609-ef2073d6d1de}, !- Source Object
  2,                                      !- Outlet Port
  {426409d7-09bf-4203-849a-21e203a11f97}, !- Target Object
  2;                                      !- Inlet Port

OS:Sizing:System,
  {09d6fa0a-8ce2-4c6f-96e2-7d57a37fc573}, !- Handle
  {f106a42a-26f8-4b4b-80db-16af689589e3}, !- AirLoop Name
  Sensible,                               !- Type of Load to Size On
  Autosize,                               !- Design Outdoor Air Flow Rate {m3/s}
  0.3,                                    !- Minimum System Air Flow Ratio
  7,                                      !- Preheat Design Temperature {C}
  0.008,                                  !- Preheat Design Humidity Ratio {kg-H2O/kg-Air}
  12.8,                                   !- Precool Design Temperature {C}
  0.008,                                  !- Precool Design Humidity Ratio {kg-H2O/kg-Air}
  12.8,                                   !- Central Cooling Design Supply Air Temperature {C}
  16.7,                                   !- Central Heating Design Supply Air Temperature {C}
  NonCoincident,                          !- Sizing Option
  Yes,                                    !- 100% Outdoor Air in Cooling
  Yes,                                    !- 100% Outdoor Air in Heating
  0.0085,                                 !- Central Cooling Design Supply Air Humidity Ratio {kg-H2O/kg-Air}
  0.008,                                  !- Central Heating Design Supply Air Humidity Ratio {kg-H2O/kg-Air}
  DesignDay,                              !- Cooling Design Air Flow Method
  0,                                      !- Cooling Design Air Flow Rate {m3/s}
  DesignDay,                              !- Heating Design Air Flow Method
  0,                                      !- Heating Design Air Flow Rate {m3/s}
  ZoneSum,                                !- System Outdoor Air Method
  1,                                      !- Zone Maximum Outdoor Air Fraction {dimensionless}
  0.0099676501,                           !- Cooling Supply Air Flow Rate Per Floor Area {m3/s-m2}
  1,                                      !- Cooling Fraction of Autosized Cooling Supply Air Flow Rate
  3.9475456e-005,                         !- Cooling Supply Air Flow Rate Per Unit Cooling Capacity {m3/s-W}
  0.0099676501,                           !- Heating Supply Air Flow Rate Per Floor Area {m3/s-m2}
  1,                                      !- Heating Fraction of Autosized Heating Supply Air Flow Rate
  1,                                      !- Heating Fraction of Autosized Cooling Supply Air Flow Rate
  3.1588213e-005,                         !- Heating Supply Air Flow Rate Per Unit Heating Capacity {m3/s-W}
  CoolingDesignCapacity,                  !- Cooling Design Capacity Method
  autosize,                               !- Cooling Design Capacity {W}
  234.7,                                  !- Cooling Design Capacity Per Floor Area {W/m2}
  1,                                      !- Fraction of Autosized Cooling Design Capacity
  HeatingDesignCapacity,                  !- Heating Design Capacity Method
  autosize,                               !- Heating Design Capacity {W}
  157,                                    !- Heating Design Capacity Per Floor Area {W/m2}
  1,                                      !- Fraction of Autosized Heating Design Capacity
  OnOff;                                  !- Central Cooling Capacity Control Method

OS:Schedule:Constant,
  {579c8354-18bf-48b3-80a2-61bc40f1fd2d}, !- Handle
  Always On Discrete,                     !- Name
  {f5d3412b-adcf-4e9f-9df1-6ffc9ed989f1}, !- Schedule Type Limits Name
  1;                                      !- Value

OS:ScheduleTypeLimits,
  {f5d3412b-adcf-4e9f-9df1-6ffc9ed989f1}, !- Handle
  OnOff,                                  !- Name
  0,                                      !- Lower Limit Value
  1,                                      !- Upper Limit Value
  Discrete,                               !- Numeric Type
  Availability;                           !- Unit Type

OS:AvailabilityManagerAssignmentList,
  {dfdc3fc7-d4fb-4574-8435-752397c72ad9}, !- Handle
  Air Loop HVAC 1 AvailabilityManagerAssignmentList; !- Name

OS:AirLoopHVAC:OutdoorAirSystem,
  {4a6a7af8-aaee-4feb-a1d8-f75e80faa5a2}, !- Handle
  Air Loop HVAC Outdoor Air System 12,    !- Name
  {25efb18a-157a-4a19-b228-a6b0cdccc516}, !- Controller Name
  ,                                       !- Outdoor Air Equipment List Name
  ,                                       !- Availability Manager List Name
  {2f6df4ef-08c3-47a3-b98f-f53f424884c7}, !- Mixed Air Node Name
  {49bd7c8c-366d-49e9-ab90-ee398722c988}, !- Outdoor Air Stream Node Name
  {6ce587d3-0366-41cb-a971-e91d1c145b34}, !- Relief Air Stream Node Name
  {46bb2320-265c-4543-9d35-1bc277d8d78e}; !- Return Air Stream Node Name

OS:Controller:OutdoorAir,
  {25efb18a-157a-4a19-b228-a6b0cdccc516}, !- Handle
  Controller Outdoor Air 1,               !- Name
  ,                                       !- Relief Air Outlet Node Name
  ,                                       !- Return Air Node Name
  ,                                       !- Mixed Air Node Name
  ,                                       !- Actuator Node Name
  0,                                      !- Minimum Outdoor Air Flow Rate {m3/s}
  Autosize,                               !- Maximum Outdoor Air Flow Rate {m3/s}
  FixedDryBulb,                           !- Economizer Control Type
  ModulateFlow,                           !- Economizer Control Action Type
  28,                                     !- Economizer Maximum Limit Dry-Bulb Temperature {C}
  64000,                                  !- Economizer Maximum Limit Enthalpy {J/kg}
  ,                                       !- Economizer Maximum Limit Dewpoint Temperature {C}
  ,                                       !- Electronic Enthalpy Limit Curve Name
  -100,                                   !- Economizer Minimum Limit Dry-Bulb Temperature {C}
  NoLockout,                              !- Lockout Type
  FixedMinimum,                           !- Minimum Limit Type
  ,                                       !- Minimum Outdoor Air Schedule Name
  ,                                       !- Minimum Fraction of Outdoor Air Schedule Name
  ,                                       !- Maximum Fraction of Outdoor Air Schedule Name
  {87fc6755-4e3a-4385-934c-a66a0b8d2ffa}, !- Controller Mechanical Ventilation
  ,                                       !- Time of Day Economizer Control Schedule Name
  No,                                     !- High Humidity Control
  ,                                       !- Humidistat Control Zone Name
  ,                                       !- High Humidity Outdoor Air Flow Ratio
  ,                                       !- Control High Indoor Humidity Based on Outdoor Humidity Ratio
  BypassWhenWithinEconomizerLimits;       !- Heat Recovery Bypass Control Type

OS:Controller:MechanicalVentilation,
  {87fc6755-4e3a-4385-934c-a66a0b8d2ffa}, !- Handle
  Controller Mechanical Ventilation 1,    !- Name
  {579c8354-18bf-48b3-80a2-61bc40f1fd2d}, !- Availability Schedule
  ,                                       !- Demand Controlled Ventilation
  ZoneSum;                                !- System Outdoor Air Method

OS:Node,
  {4accaed2-7b45-4195-8f0e-6c7edf6a2368}, !- Handle
  Node 6,                                 !- Name
  ,                                       !- Inlet Port
  {f178f707-e6dd-43ac-b209-c9ef97451c41}; !- Outlet Port

OS:Node,
  {7d781091-2fc7-48ad-bb92-66161321cfcc}, !- Handle
  Node 7,                                 !- Name
  {d9f50769-aa5b-4faf-86fa-050679f80f93}, !- Inlet Port
  ;                                       !- Outlet Port

OS:HeatExchanger:AirToAir:SensibleAndLatent,
  {8129bfec-5a1c-4f4f-b317-6a1268e0c496}, !- Handle
  ERV HX,                                 !- Name
  {48d1b470-fb27-45bb-82fc-2b6dfee4d094}, !- Availability Schedule
  autosize,                               !- Nominal Supply Air Flow Rate {m3/s}
  0.76,                                   !- Sensible Effectiveness at 100% Heating Air Flow {dimensionless}
  0.68,                                   !- Latent Effectiveness at 100% Heating Air Flow {dimensionless}
  0.81,                                   !- Sensible Effectiveness at 75% Heating Air Flow {dimensionless}
  0.73,                                   !- Latent Effectiveness at 75% Heating Air Flow {dimensionless}
  0.76,                                   !- Sensible Effectiveness at 100% Cooling Air Flow {dimensionless}
  0.68,                                   !- Latent Effectiveness at 100% Cooling Air Flow {dimensionless}
  0.81,                                   !- Sensible Effectiveness at 75% Cooling Air Flow {dimensionless}
  0.73,                                   !- Latent Effectiveness at 75% Cooling Air Flow {dimensionless}
  {f178f707-e6dd-43ac-b209-c9ef97451c41}, !- Supply Air Inlet Node
  {fe4b025d-7d89-4897-8d3a-0962f9d8192f}, !- Supply Air Outlet Node
  {7f5664a4-a3ce-4a6f-9b6a-af578ae1b8b0}, !- Exhaust Air Inlet Node
  {d9f50769-aa5b-4faf-86fa-050679f80f93}, !- Exhaust Air Outlet Node
  0,                                      !- Nominal Electric Power {W}
  No,                                     !- Supply Air Outlet Temperature Control
  Plate,                                  !- Heat Exchanger Type
  None,                                   !- Frost Control Type
  1.7,                                    !- Threshold Temperature {C}
  ,                                       !- Initial Defrost Time Fraction {dimensionless}
  ,                                       !- Rate of Defrost Time Fraction Increase {1/K}
  Yes;                                    !- Economizer Lockout

! Always On Discrete
OS:Schedule:Constant,
  {48d1b470-fb27-45bb-82fc-2b6dfee4d094}, !- Handle
  Always On Discrete hvac_library,        !- Name
  {19996df8-23f3-4f1a-a6c7-adaf46946a08}, !- Schedule Type Limits Name
  1;                                      !- Value

! Always OnOff Discrete Schedule Type Limits
OS:ScheduleTypeLimits,
  {19996df8-23f3-4f1a-a6c7-adaf46946a08}, !- Handle
  OnOff hvac_library,                     !- Name
  0,                                      !- Lower Limit Value
  1,                                      !- Upper Limit Value
  Discrete,                               !- Numeric Type
  Availability;                           !- Unit Type

OS:HeatExchanger:AirToAir:SensibleAndLatent,
  {9efd26b2-5436-49a6-b6e1-df9060b57f8d}, !- Handle
  ERV HX 1,                               !- Name
  {48d1b470-fb27-45bb-82fc-2b6dfee4d094}, !- Availability Schedule
  autosize,                               !- Nominal Supply Air Flow Rate {m3/s}
  0.76,                                   !- Sensible Effectiveness at 100% Heating Air Flow {dimensionless}
  0.68,                                   !- Latent Effectiveness at 100% Heating Air Flow {dimensionless}
  0.81,                                   !- Sensible Effectiveness at 75% Heating Air Flow {dimensionless}
  0.73,                                   !- Latent Effectiveness at 75% Heating Air Flow {dimensionless}
  0.76,                                   !- Sensible Effectiveness at 100% Cooling Air Flow {dimensionless}
  0.68,                                   !- Latent Effectiveness at 100% Cooling Air Flow {dimensionless}
  0.81,                                   !- Sensible Effectiveness at 75% Cooling Air Flow {dimensionless}
  0.73,                                   !- Latent Effectiveness at 75% Cooling Air Flow {dimensionless}
  ,                                       !- Supply Air Inlet Node
  ,                                       !- Supply Air Outlet Node
  ,                                       !- Exhaust Air Inlet Node
  ,                                       !- Exhaust Air Outlet Node
  0,                                      !- Nominal Electric Power {W}
  No,                                     !- Supply Air Outlet Temperature Control
  Plate,                                  !- Heat Exchanger Type
  None,                                   !- Frost Control Type
  1.7,                                    !- Threshold Temperature {C}
  ,                                       !- Initial Defrost Time Fraction {dimensionless}
  ,                                       !- Rate of Defrost Time Fraction Increase {1/K}
  Yes;                                    !- Economizer Lockout

OS:Node,
  {f4a83781-551b-44c9-89e2-04d51458746f}, !- Handle
  Node 9,                                 !- Name
  {fe4b025d-7d89-4897-8d3a-0962f9d8192f}, !- Inlet Port
  {49bd7c8c-366d-49e9-ab90-ee398722c988}; !- Outlet Port

OS:Connection,
  {f178f707-e6dd-43ac-b209-c9ef97451c41}, !- Handle
  {876f90b1-2e17-4318-9898-5f99e848aa64}, !- Name
  {4accaed2-7b45-4195-8f0e-6c7edf6a2368}, !- Source Object
  3,                                      !- Outlet Port
  {8129bfec-5a1c-4f4f-b317-6a1268e0c496}, !- Target Object
  12;                                     !- Inlet Port

OS:Connection,
  {fe4b025d-7d89-4897-8d3a-0962f9d8192f}, !- Handle
  {d945e3d0-efa1-4998-a40d-023f8c6e2939}, !- Name
  {8129bfec-5a1c-4f4f-b317-6a1268e0c496}, !- Source Object
  13,                                     !- Outlet Port
  {f4a83781-551b-44c9-89e2-04d51458746f}, !- Target Object
  2;                                      !- Inlet Port

OS:Connection,
  {49bd7c8c-366d-49e9-ab90-ee398722c988}, !- Handle
  {ae29e494-e3c7-4175-96f1-e68f7de9c23f}, !- Name
  {f4a83781-551b-44c9-89e2-04d51458746f}, !- Source Object
  3,                                      !- Outlet Port
  {4a6a7af8-aaee-4feb-a1d8-f75e80faa5a2}, !- Target Object
  6;                                      !- Inlet Port

OS:Node,
  {ea0c720f-23f6-4d8e-b11f-7667aa84185a}, !- Handle
  Node 10,                                !- Name
  {6ce587d3-0366-41cb-a971-e91d1c145b34}, !- Inlet Port
  {7f5664a4-a3ce-4a6f-9b6a-af578ae1b8b0}; !- Outlet Port

OS:Connection,
  {6ce587d3-0366-41cb-a971-e91d1c145b34}, !- Handle
  {95ee156e-9bf0-4cae-9fab-0b0e4d73baaa}, !- Name
  {4a6a7af8-aaee-4feb-a1d8-f75e80faa5a2}, !- Source Object
  7,                                      !- Outlet Port
  {ea0c720f-23f6-4d8e-b11f-7667aa84185a}, !- Target Object
  2;                                      !- Inlet Port

OS:Connection,
  {7f5664a4-a3ce-4a6f-9b6a-af578ae1b8b0}, !- Handle
  {5db450e9-2cad-42ea-bc7c-2a9c6f143906}, !- Name
  {ea0c720f-23f6-4d8e-b11f-7667aa84185a}, !- Source Object
  3,                                      !- Outlet Port
  {8129bfec-5a1c-4f4f-b317-6a1268e0c496}, !- Target Object
  14;                                     !- Inlet Port

OS:Connection,
  {d9f50769-aa5b-4faf-86fa-050679f80f93}, !- Handle
  {a9a25864-35d9-415b-bfa9-e9946ddc04f5}, !- Name
  {8129bfec-5a1c-4f4f-b317-6a1268e0c496}, !- Source Object
  15,                                     !- Outlet Port
  {7d781091-2fc7-48ad-bb92-66161321cfcc}, !- Target Object
  2;                                      !- Inlet Port

OS:Connection,
  {46bb2320-265c-4543-9d35-1bc277d8d78e}, !- Handle
  {65101bcb-6a57-41f8-8430-015d6ee83276}, !- Name
  {f4100c6a-62a2-42b0-a04c-14a82ef524af}, !- Source Object
  3,                                      !- Outlet Port
  {4a6a7af8-aaee-4feb-a1d8-f75e80faa5a2}, !- Target Object
  8;                                      !- Inlet Port

OS:Coil:Cooling:Water,
  {9afb588d-4ff3-498e-8494-236bc57bde6e}, !- Handle
  Coil Cooling Water 1,                   !- Name
  {579c8354-18bf-48b3-80a2-61bc40f1fd2d}, !- Availability Schedule Name
  ,                                       !- Design Water Flow Rate {m3/s}
  ,                                       !- Design Air Flow Rate {m3/s}
  ,                                       !- Design Inlet Water Temperature {C}
  ,                                       !- Design Inlet Air Temperature {C}
  ,                                       !- Design Outlet Air Temperature {C}
  ,                                       !- Design Inlet Air Humidity Ratio {kg-H2O/kg-air}
  ,                                       !- Design Outlet Air Humidity Ratio {kg-H2O/kg-air}
  ,                                       !- Water Inlet Node Name
  ,                                       !- Water Outlet Node Name
  {327ba007-9730-47c3-950c-0d5c5cae37fd}, !- Air Inlet Node Name
  {7447c4b6-f7bf-4faa-9c47-08c1385d17bc}, !- Air Outlet Node Name
  ,                                       !- Type of Analysis
  ;                                       !- Heat Exchanger Configuration

OS:Node,
  {5110c433-688b-4849-9da9-ee3c38175d0e}, !- Handle
  Node 8,                                 !- Name
  {2f6df4ef-08c3-47a3-b98f-f53f424884c7}, !- Inlet Port
  {327ba007-9730-47c3-950c-0d5c5cae37fd}; !- Outlet Port

OS:Connection,
  {2f6df4ef-08c3-47a3-b98f-f53f424884c7}, !- Handle
  {59741fb5-05ef-47e8-8e40-7674c36a056e}, !- Name
  {4a6a7af8-aaee-4feb-a1d8-f75e80faa5a2}, !- Source Object
  5,                                      !- Outlet Port
  {5110c433-688b-4849-9da9-ee3c38175d0e}, !- Target Object
  2;                                      !- Inlet Port

OS:Connection,
  {327ba007-9730-47c3-950c-0d5c5cae37fd}, !- Handle
  {bd25c64c-03dd-4730-936a-00f746f0fb97}, !- Name
  {5110c433-688b-4849-9da9-ee3c38175d0e}, !- Source Object
  3,                                      !- Outlet Port
  {9afb588d-4ff3-498e-8494-236bc57bde6e}, !- Target Object
  12;                                     !- Inlet Port

OS:Coil:Heating:Water,
  {0f025554-a111-4419-8a4a-78956a6bf265}, !- Handle
  Coil Heating Water 1,                   !- Name
  {579c8354-18bf-48b3-80a2-61bc40f1fd2d}, !- Availability Schedule Name
  ,                                       !- U-Factor Times Area Value {W/K}
  ,                                       !- Maximum Water Flow Rate {m3/s}
  ,                                       !- Water Inlet Node Name
  ,                                       !- Water Outlet Node Name
  {1c1c488a-666a-4e8f-9353-75bed7225821}, !- Air Inlet Node Name
  {8527a8db-de57-4ca7-9f53-2a9b7925fb41}, !- Air Outlet Node Name
  ,                                       !- Performance Input Method
  ,                                       !- Rated Capacity {W}
  ,                                       !- Rated Inlet Water Temperature {C}
  ,                                       !- Rated Inlet Air Temperature {C}
  ,                                       !- Rated Outlet Water Temperature {C}
  ,                                       !- Rated Outlet Air Temperature {C}
  ;                                       !- Rated Ratio for Air and Water Convection

OS:Node,
  {c6f1b1b2-81de-4a18-af06-e95aeb4bc85c}, !- Handle
  Node 11,                                !- Name
  {7447c4b6-f7bf-4faa-9c47-08c1385d17bc}, !- Inlet Port
  {1c1c488a-666a-4e8f-9353-75bed7225821}; !- Outlet Port

OS:Connection,
  {7447c4b6-f7bf-4faa-9c47-08c1385d17bc}, !- Handle
  {564d3361-4cfe-46ef-a821-1c543df8e03c}, !- Name
  {9afb588d-4ff3-498e-8494-236bc57bde6e}, !- Source Object
  13,                                     !- Outlet Port
  {c6f1b1b2-81de-4a18-af06-e95aeb4bc85c}, !- Target Object
  2;                                      !- Inlet Port

OS:Connection,
  {1c1c488a-666a-4e8f-9353-75bed7225821}, !- Handle
  {93435a0d-4c94-4d07-99e4-e80b754e4fd0}, !- Name
  {c6f1b1b2-81de-4a18-af06-e95aeb4bc85c}, !- Source Object
  3,                                      !- Outlet Port
  {0f025554-a111-4419-8a4a-78956a6bf265}, !- Target Object
  7;                                      !- Inlet Port

OS:Fan:VariableVolume,
  {86428eef-2913-4d6a-8abd-956dab40acd6}, !- Handle
  Fan Variable Volume 1,                  !- Name
  {579c8354-18bf-48b3-80a2-61bc40f1fd2d}, !- Availability Schedule Name
  0.6045,                                 !- Fan Efficiency
  500,                                    !- Pressure Rise {Pa}