
OS:Version,
  {d8679b94-4145-4c54-bed8-85e7a3969765}, !- Handle
  2.4.0;                                  !- Version Identifier

OS:Schedule:Ruleset,
  {b9f61985-ad6a-4462-a536-5174b0a7dd50}, !- Handle
  Schedule - [hWqSNHqy],                  !- Name
  ,                                       !- Schedule Type Limits Name
  {4c999375-e746-47ba-a592-f8090ef63192}; !- Default Day Schedule Name

OS:Schedule:Day,
  {4c999375-e746-47ba-a592-f8090ef63192}, !- Handle
  Schedule Day 1,                         !- Name
  ,                                       !- Schedule Type Limits Name
  ,                                       !- Interpolate to Timestep
  2,                                      !- Hour 1
  0,                                      !- Minute 1
  0,                                      !- Value Until Time 1
  3,                                      !- Hour 2
  0,                                      !- Minute 2
  0.4,                                    !- Value Until Time 2
  7,                                      !- Hour 3
  0,                                      !- Minute 3
  0,                                      !- Value Until Time 3
  8,                                      !- Hour 4
  0,                                      !- Minute 4
  0.2,                                    !- Value Until Time 4
  10,                                     !- Hour 5
  0,                                      !- Minute 5
  1,                                      !- Value Until Time 5
  11,                                     !- Hour 6
  0,                                      !- Minute 6
  0,                                      !- Value Until Time 6
  12,                                     !- Hour 7
  0,                                      !- Minute 7
  1,                                      !- Value Until Time 7
  13,                                     !- Hour 8
  0,                                      !- Minute 8
  0.5,                                    !- Value Until Time 8
  18,                                     !- Hour 9
  0,                                      !- Minute 9
  1,                                      !- Value Until Time 9
  22,                                     !- Hour 10
  0,                                      !- Minute 10
  0,                                      !- Value Until Time 10
  23,                                     !- Hour 11
  0,                                      !- Minute 11
  0.1,                                    !- Value Until Time 11
  24,                                     !- Hour 12
  0,                                      !- Minute 12
  0;                                      !- Value Until Time 12

OS:Schedule:Rule,
  {740257d0-ea11-42f8-9292-a6db63cc61fb}, !- Handle
  ScheduleRule - [K5lHUk1k],              !- Name
  {b9f61985-ad6a-4462-a536-5174b0a7dd50}, !- Schedule Ruleset Name
  0,                                      !- Rule Order
  {78c0a25b-dbac-48a0-912a-48f2ee707c2a}; !- Day Schedule Name

OS:Schedule:Day,
  {78c0a25b-dbac-48a0-912a-48f2ee707c2a}, !- Handle
  ScheduleDay - [KMdg7NOu],               !- Name
  ,                                       !- Schedule Type Limits Name
  ,                                       !- Interpolate to Timestep
  2,                                      !- Hour 1
  0,                                      !- Minute 1
  0,                                      !- Value Until Time 1
  3,                                      !- Hour 2
  0,                                      !- Minute 2
  1,                                      !- Value Until Time 2
  7,                                      !- Hour 3
  0,                                      !- Minute 3
  0,                                      !- Value Until Time 3
  12,                                     !- Hour 4
  0,                                      !- Minute 4
  1,                                      !- Value Until Time 4
  13,                                     !- Hour 5
  0,                                      !- Minute 5
  0.5,                                    !- Value Until Time 5
  18,                                     !- Hour 6
  0,                                      !- Minute 6
  1,                                      !- Value Until Time 6
  22,                                     !- Hour 7
  0,                                      !- Minute 7
  0,                                      !- Value Until Time 7
  23,                                     !- Hour 8
  0,                                      !- Minute 8
  0.8,                                    !- Value Until Time 8
  24,                                     !- Hour 9
  0,                                      !- Minute 9
  0;                                      !- Value Until Time 9

