
OS:Version,
  {3362a6ee-784f-4dd7-a520-48e274f9260b}, !- Handle
  2.4.0;                                  !- Version Identifier

! TrackingID:#[3VaWgK]
OS:PlantLoop,
  {3a5bf232-d2dc-4b48-a182-475dec5e2db5}, !- Handle
  Plant Loop 1,                           !- Name
  Water,                                  !- Fluid Type
  0,                                      !- Glycol Concentration
  ,                                       !- User Defined Fluid Type
  ,                                       !- Plant Equipment Operation Heating Load
  ,                                       !- Plant Equipment Operation Cooling Load
  ,                                       !- Primary Plant Equipment Operation Scheme
  {58762fe6-ed2c-4f28-bfb8-2e600016a127}, !- Loop Temperature Setpoint Node Name
  ,                                       !- Maximum Loop Temperature {C}
  ,                                       !- Minimum Loop Temperature {C}
  ,                                       !- Maximum Loop Flow Rate {m3/s}
  ,                                       !- Minimum Loop Flow Rate {m3/s}
  Autocalculate,                          !- Plant Loop Volume {m3}
  {058496d8-6bb9-4df9-84b2-fde4bc4e2114}, !- Plant Side Inlet Node Name
  {fc55271e-bf63-4575-8790-2b2c7509e6b1}, !- Plant Side Outlet Node Name
  ,                                       !- Plant Side Branch List Name
  {e3f11261-1759-477b-a348-df266ecd4f0c}, !- Demand Side Inlet Node Name
  {3779db26-391e-4e01-8d4a-25375b3e8bd3}, !- Demand Side Outlet Node Name
  ,                                       !- Demand Side Branch List Name
  ,                                       !- Demand Side Connector List Name
  Optimal,                                !- Load Distribution Scheme
  {42e9e27d-4469-47dc-8205-b0f7e728febc}, !- Availability Manager List Name
  ,                                       !- Plant Loop Demand Calculation Scheme
  ,                                       !- Common Pipe Simulation
  ,                                       !- Pressure Simulation Type
  ,                                       !- Plant Equipment Operation Heating Load Schedule
  ,                                       !- Plant Equipment Operation Cooling Load Schedule
  ,                                       !- Primary Plant Equipment Operation Scheme Schedule
  ,                                       !- Component Setpoint Operation Scheme Schedule
  {5475deaf-1700-4c9d-bdda-29008473b1c4}, !- Demand Mixer Name
  {46e6fd63-12ed-4948-838e-3e4f7b42c11b}, !- Demand Splitter Name
  {fa5c1ebf-b1a8-4d01-9b19-cee3ebe7c58a}, !- Supply Mixer Name
  {a066e32c-1bda-406d-9871-aae382fe0e47}; !- Supply Splitter Name

OS:Sizing:Plant,
  {20aa240c-cea1-4be1-a247-8ae4d2cc6c5d}, !- Handle
  {3a5bf232-d2dc-4b48-a182-475dec5e2db5}, !- Plant or Condenser Loop Name
  Heating,                                !- Loop Type
  82,                                     !- Design Loop Exit Temperature {C}
  11,                                     !- Loop Design Temperature Difference {deltaC}
  NonCoincident,                          !- Sizing Option
  1,                                      !- Zone Timesteps in Averaging Window
  None;                                   !- Coincident Sizing Factor Mode

OS:Node,
  {871ea4bb-dc46-4ed0-ba04-f9b56073a3f4}, !- Handle
  Node 1,                                 !- Name
  {058496d8-6bb9-4df9-84b2-fde4bc4e2114}, !- Inlet Port
  {c00324c1-8b45-4150-829b-867b06dbd2af}; !- Outlet Port

OS:Node,
  {58762fe6-ed2c-4f28-bfb8-2e600016a127}, !- Handle
  Node 2,                                 !- Name
  {236e0324-07f7-4c6d-b4bc-b978703661fe}, !- Inlet Port
  {fc55271e-bf63-4575-8790-2b2c7509e6b1}; !- Outlet Port

OS:Node,
  {ea9d65d4-02b1-4c07-9e7e-05bacbda372e}, !- Handle
  Node 3,                                 !- Name
  {2ac45337-a20c-4f2a-bbc9-3fd6f638009a}, !- Inlet Port
  {24e791ea-919c-4d59-871c-8925ca258114}; !- Outlet Port

OS:Connector:Mixer,
  {fa5c1ebf-b1a8-4d01-9b19-cee3ebe7c58a}, !- Handle
  Connector Mixer 1,                      !- Name
  {236e0324-07f7-4c6d-b4bc-b978703661fe}, !- Outlet Branch Name
  {adba77f1-91f1-46b9-b6eb-ba8c832561c7}, !- Inlet Branch Name 1
  {9f2e15bb-e6ee-4ad6-beb3-e6aea68a919f}; !- Inlet Branch Name 2

OS:Connector:Splitter,
  {a066e32c-1bda-406d-9871-aae382fe0e47}, !- Handle
  Connector Splitter 1,                   !- Name
  {14336c33-cade-4caf-8f3e-1ba91bd55f04}, !- Inlet Branch Name
  {2ac45337-a20c-4f2a-bbc9-3fd6f638009a}, !- Outlet Branch Name 1
  {acfd9c11-0359-4c1a-a3fc-d8bcff9b2f84}; !- Outlet Branch Name 2

OS:Connection,
  {058496d8-6bb9-4df9-84b2-fde4bc4e2114}, !- Handle
  {ed8b99df-d6c6-4799-af79-788287a91517}, !- Name
  {3a5bf232-d2dc-4b48-a182-475dec5e2db5}, !- Source Object
  14,                                     !- Outlet Port
  {871ea4bb-dc46-4ed0-ba04-f9b56073a3f4}, !- Target Object
  2;                                      !- Inlet Port

OS:Connection,
  {2ac45337-a20c-4f2a-bbc9-3fd6f638009a}, !- Handle
  {fb3690ac-5cbf-42db-a19f-3b647b1a1f36}, !- Name
  {a066e32c-1bda-406d-9871-aae382fe0e47}, !- Source Object
  3,                                      !- Outlet Port
  {ea9d65d4-02b1-4c07-9e7e-05bacbda372e}, !- Target Object
  2;                                      !- Inlet Port

OS:Connection,
  {236e0324-07f7-4c6d-b4bc-b978703661fe}, !- Handle
  {2e932f5a-bc36-4193-9069-be5ac2f9e46b}, !- Name
  {fa5c1ebf-b1a8-4d01-9b19-cee3ebe7c58a}, !- Source Object
  2,                                      !- Outlet Port
  {58762fe6-ed2c-4f28-bfb8-2e600016a127}, !- Target Object
  2;                                      !- Inlet Port

OS:Connection,
  {fc55271e-bf63-4575-8790-2b2c7509e6b1}, !- Handle
  {db75afd6-e869-426b-925c-cafe75bdd25a}, !- Name
  {58762fe6-ed2c-4f28-bfb8-2e600016a127}, !- Source Object
  3,                                      !- Outlet Port
  {3a5bf232-d2dc-4b48-a182-475dec5e2db5}, !- Target Object
  15;                                     !- Inlet Port

OS:Node,
  {d7fc1645-b28b-4c4b-ae06-18cea1a76a0d}, !- Handle
  Node 4,                                 !- Name
  {e3f11261-1759-477b-a348-df266ecd4f0c}, !- Inlet Port
  {331ddedb-ac64-4fa1-aa43-a8e7a8a2b261}; !- Outlet Port

OS:Node,
  {a1f8adb4-fcdf-4b34-bd97-6c3bbe78f6ea}, !- Handle
  Node 5,                                 !- Name
  {2d941d61-b744-46cd-929d-df107ab5c1b7}, !- Inlet Port
  {3779db26-391e-4e01-8d4a-25375b3e8bd3}; !- Outlet Port

OS:Node,
  {d7ecd77b-c60a-4486-b86a-f937f1f7bf2b}, !- Handle
  Node 6,                                 !- Name
  {80ebd071-cda0-4708-8519-982be34f467a}, !- Inlet Port
  {176431ed-fc6e-4dba-ae65-87d94994aaf5}; !- Outlet Port

OS:Connector:Mixer,
  {5475deaf-1700-4c9d-bdda-29008473b1c4}, !- Handle
  Connector Mixer 2,                      !- Name
  {2d941d61-b744-46cd-929d-df107ab5c1b7}, !- Outlet Branch Name
  {176431ed-fc6e-4dba-ae65-87d94994aaf5}; !- Inlet Branch Name 1

OS:Connector:Splitter,
  {46e6fd63-12ed-4948-838e-3e4f7b42c11b}, !- Handle
  Connector Splitter 2,                   !- Name
  {331ddedb-ac64-4fa1-aa43-a8e7a8a2b261}, !- Inlet Branch Name
  {80ebd071-cda0-4708-8519-982be34f467a}; !- Outlet Branch Name 1

OS:Connection,
  {e3f11261-1759-477b-a348-df266ecd4f0c}, !- Handle
  {d6624952-ba1c-42f0-907a-8c12fbf20b42}, !- Name
  {3a5bf232-d2dc-4b48-a182-475dec5e2db5}, !- Source Object
  17,                                     !- Outlet Port
  {d7fc1645-b28b-4c4b-ae06-18cea1a76a0d}, !- Target Object
  2;                                      !- Inlet Port

OS:Connection,
  {331ddedb-ac64-4fa1-aa43-a8e7a8a2b261}, !- Handle
  {9c63a3b6-02b2-419e-bcd6-1f307d90e174}, !- Name
  {d7fc1645-b28b-4c4b-ae06-18cea1a76a0d}, !- Source Object
  3,                                      !- Outlet Port
  {46e6fd63-12ed-4948-838e-3e4f7b42c11b}, !- Target Object
  2;                                      !- Inlet Port

OS:Connection,
  {80ebd071-cda0-4708-8519-982be34f467a}, !- Handle
  {44eb84f7-b024-4c6d-b20f-a18407cd757c}, !- Name
  {46e6fd63-12ed-4948-838e-3e4f7b42c11b}, !- Source Object
  3,                                      !- Outlet Port
  {d7ecd77b-c60a-4486-b86a-f937f1f7bf2b}, !- Target Object
  2;                                      !- Inlet Port

OS:Connection,
  {176431ed-fc6e-4dba-ae65-87d94994aaf5}, !- Handle
  {65f1b25f-b4ec-4a1f-acd8-2010ac2b4892}, !- Name
  {d7ecd77b-c60a-4486-b86a-f937f1f7bf2b}, !- Source Object
  3,                                      !- Outlet Port
  {5475deaf-1700-4c9d-bdda-29008473b1c4}, !- Target Object
  3;                                      !- Inlet Port

OS:Connection,
  {2d941d61-b744-46cd-929d-df107ab5c1b7}, !- Handle
  {6d7cde9d-206e-4838-b783-c3b08957bfff}, !- Name
  {5475deaf-1700-4c9d-bdda-29008473b1c4}, !- Source Object
  2,                                      !- Outlet Port
  {a1f8adb4-fcdf-4b34-bd97-6c3bbe78f6ea}, !- Target Object
  2;                                      !- Inlet Port

OS:Connection,
  {3779db26-391e-4e01-8d4a-25375b3e8bd3}, !- Handle
  {3ef35c91-3f6e-4875-930b-668044b77113}, !- Name
  {a1f8adb4-fcdf-4b34-bd97-6c3bbe78f6ea}, !- Source Object
  3,                                      !- Outlet Port
  {3a5bf232-d2dc-4b48-a182-475dec5e2db5}, !- Target Object
  18;                                     !- Inlet Port

OS:AvailabilityManagerAssignmentList,
  {42e9e27d-4469-47dc-8205-b0f7e728febc}, !- Handle
  Plant Loop 1 AvailabilityManagerAssignmentList; !- Name

! TrackingID:#[G7eP2J]
OS:Boiler:HotWater,
  {5af74f07-7b97-46e8-86a6-698ac08affc2}, !- Handle
  boiler00,                               !- Name
  ,                                       !- Fuel Type
  ,                                       !- Nominal Capacity {W}
  ,                                       !- Nominal Thermal Efficiency
  ,                                       !- Efficiency Curve Temperature Evaluation Variable
  ,                                       !- Normalized Boiler Efficiency Curve Name
  ,                                       !- Design Water Outlet Temperature {C}
  ,                                       !- Design Water Flow Rate {m3/s}
  ,                                       !- Minimum Part Load Ratio
  ,                                       !- Maximum Part Load Ratio
  ,                                       !- Optimum Part Load Ratio
  {c00324c1-8b45-4150-829b-867b06dbd2af}, !- Boiler Water Inlet Node Name
  {b92ed14a-732e-4728-a239-13e0b22e10a6}, !- Boiler Water Outlet Node Name
  99,                                     !- Water Outlet Upper Temperature Limit {C}
  ConstantFlow,                           !- Boiler Flow Mode
  0,                                      !- Parasitic Electric Load {W}
  1;                                      !- Sizing Factor

OS:Node,
  {fe168cd1-1234-4c20-a4c2-ed064ce7ed5f}, !- Handle
  Node 7,                                 !- Name
  {b92ed14a-732e-4728-a239-13e0b22e10a6}, !- Inlet Port
  {14336c33-cade-4caf-8f3e-1ba91bd55f04}; !- Outlet Port

OS:Connection,
  {c00324c1-8b45-4150-829b-867b06dbd2af}, !- Handle
  {6c45f7a1-b5c6-4234-b415-8ecad6e7aed5}, !- Name
  {871ea4bb-dc46-4ed0-ba04-f9b56073a3f4}, !- Source Object
  3,                                      !- Outlet Port
  {5af74f07-7b97-46e8-86a6-698ac08affc2}, !- Target Object
  12;                                     !- Inlet Port

OS:Connection,
  {b92ed14a-732e-4728-a239-13e0b22e10a6}, !- Handle
  {8fa26fa7-7c2b-4fa7-8ebb-af3023e97e15}, !- Name
  {5af74f07-7b97-46e8-86a6-698ac08affc2}, !- Source Object
  13,                                     !- Outlet Port
  {fe168cd1-1234-4c20-a4c2-ed064ce7ed5f}, !- Target Object
  2;                                      !- Inlet Port

OS:Connection,
  {14336c33-cade-4caf-8f3e-1ba91bd55f04}, !- Handle
  {dabbdaae-69e4-4de7-b902-72c211973c29}, !- Name
  {fe168cd1-1234-4c20-a4c2-ed064ce7ed5f}, !- Source Object
  3,                                      !- Outlet Port
  {a066e32c-1bda-406d-9871-aae382fe0e47}, !- Target Object
  2;                                      !- Inlet Port

! TrackingID:#[yiwymG]
OS:Boiler:HotWater,
  {e395f732-a861-4505-8b4f-7b995183851b}, !- Handle
  Boiler Hot Water 1,                     !- Name
  ,                                       !- Fuel Type
  ,                                       !- Nominal Capacity {W}
  ,                                       !- Nominal Thermal Efficiency
  ,                                       !- Efficiency Curve Temperature Evaluation Variable
  ,                                       !- Normalized Boiler Efficiency Curve Name
  ,                                       !- Design Water Outlet Temperature {C}
  ,                                       !- Design Water Flow Rate {m3/s}
  ,                                       !- Minimum Part Load Ratio
  ,                                       !- Maximum Part Load Ratio
  ,                                       !- Optimum Part Load Ratio
  {24e791ea-919c-4d59-871c-8925ca258114}, !- Boiler Water Inlet Node Name
  {bebe513b-10d2-4a94-ad9f-c7720ae05b52}, !- Boiler Water Outlet Node Name
  99,                                     !- Water Outlet Upper Temperature Limit {C}
  ConstantFlow,                           !- Boiler Flow Mode
  0,                                      !- Parasitic Electric Load {W}
  1;                                      !- Sizing Factor

OS:Node,
  {8cb64f50-42f9-4ee7-b8cf-2bc9b5509d47}, !- Handle
  Node 8,                                 !- Name
  {bebe513b-10d2-4a94-ad9f-c7720ae05b52}, !- Inlet Port
  {180ba0f2-c392-4a0e-8990-4f32f8a2810a}; !- Outlet Port

OS:Connection,
  {24e791ea-919c-4d59-871c-8925ca258114}, !- Handle
  {aa47ee19-b858-4c0c-b56f-ee0d1423ffd9}, !- Name
  {ea9d65d4-02b1-4c07-9e7e-05bacbda372e}, !- Source Object
  3,                                      !- Outlet Port
  {e395f732-a861-4505-8b4f-7b995183851b}, !- Target Object
  12;                                     !- Inlet Port

OS:Connection,
  {bebe513b-10d2-4a94-ad9f-c7720ae05b52}, !- Handle
  {4544b891-0508-4a4f-91c9-e628bc86370f}, !- Name
  {e395f732-a861-4505-8b4f-7b995183851b}, !- Source Object
  13,                                     !- Outlet Port
  {8cb64f50-42f9-4ee7-b8cf-2bc9b5509d47}, !- Target Object
  2;                                      !- Inlet Port

! TrackingID:#[mGEnkz]
OS:Pump:VariableSpeed,
  {33385fa6-d389-45c4-b72b-4dfcdb88c57b}, !- Handle
  Pump Variable Speed 1,                  !- Name
  {180ba0f2-c392-4a0e-8990-4f32f8a2810a}, !- Inlet Node Name
  {ae8ecd92-e93c-4785-bfa4-64e211eaae52}, !- Outlet Node Name
  ,                                       !- Rated Flow Rate {m3/s}
  ,                                       !- Rated Pump Head {Pa}
  ,                                       !- Rated Power Consumption {W}
  ,                                       !- Motor Efficiency
  ,                                       !- Fraction of Motor Inefficiencies to Fluid Stream
  ,                                       !- Coefficient 1 of the Part Load Performance Curve
  ,                                       !- Coefficient 2 of the Part Load Performance Curve
  ,                                       !- Coefficient 3 of the Part Load Performance Curve
  ,                                       !- Coefficient 4 of the Part Load Performance Curve
  ,                                       !- Minimum Flow Rate {m3/s}
  Intermittent,                           !- Pump Control Type
  ,                                       !- Pump Flow Rate Schedule Name
  ,                                       !- Pump Curve Name
  ,                                       !- Impeller Diameter {m}
  ,                                       !- VFD Control Type
  ,                                       !- Pump rpm Schedule Name
  ,                                       !- Minimum Pressure Schedule {Pa}
  ,                                       !- Maximum Pressure Schedule {Pa}
  ,                                       !- Minimum RPM Schedule {Rotations Per Minute}
  ,                                       !- Maximum RPM Schedule {Rotations Per Minute}
  ,                                       !- Zone Name
  0.5,                                    !- Skin Loss Radiative Fraction
  PowerPerFlowPerPressure,                !- Design Power Sizing Method
  348701.1,                               !- Design Electric Power per Unit Flow Rate {W/(m3/s)}
  1.282051282,                            !- Design Shaft Power per Unit Flow Rate per Unit Head {W-s/m3-Pa}
  0;                                      !- Design Minimum Flow Rate Fraction

OS:Node,
  {66149021-7812-4822-95fa-4b4bf60d4281}, !- Handle
  Node 9,                                 !- Name
  {ae8ecd92-e93c-4785-bfa4-64e211eaae52}, !- Inlet Port
  {adba77f1-91f1-46b9-b6eb-ba8c832561c7}; !- Outlet Port

OS:Connection,
  {180ba0f2-c392-4a0e-8990-4f32f8a2810a}, !- Handle
  {b465e49b-86c3-4987-b18c-5605c204eb34}, !- Name
  {8cb64f50-42f9-4ee7-b8cf-2bc9b5509d47}, !- Source Object
  3,                                      !- Outlet Port
  {33385fa6-d389-45c4-b72b-4dfcdb88c57b}, !- Target Object
  2;                                      !- Inlet Port

OS:Connection,
  {ae8ecd92-e93c-4785-bfa4-64e211eaae52}, !- Handle
  {4a3bcf8f-94e1-42c6-bf6f-115290ed6cc6}, !- Name
  {33385fa6-d389-45c4-b72b-4dfcdb88c57b}, !- Source Object
  3,                                      !- Outlet Port
  {66149021-7812-4822-95fa-4b4bf60d4281}, !- Target Object
  2;                                      !- Inlet Port

OS:Connection,
  {adba77f1-91f1-46b9-b6eb-ba8c832561c7}, !- Handle
  {f1624192-d27e-48f4-836f-9a4777238347}, !- Name
  {66149021-7812-4822-95fa-4b4bf60d4281}, !- Source Object
  3,                                      !- Outlet Port
  {fa5c1ebf-b1a8-4d01-9b19-cee3ebe7c58a}, !- Target Object
  3;                                      !- Inlet Port

! TrackingID:#[I6t5lg]
OS:Boiler:HotWater,
  {c228cd50-fede-4629-8938-d63001ad3924}, !- Handle
  boiler10,                               !- Name
  ,                                       !- Fuel Type
  ,                                       !- Nominal Capacity {W}
  ,                                       !- Nominal Thermal Efficiency
  ,                                       !- Efficiency Curve Temperature Evaluation Variable
  ,                                       !- Normalized Boiler Efficiency Curve Name
  ,                                       !- Design Water Outlet Temperature {C}
  ,                                       !- Design Water Flow Rate {m3/s}
  ,                                       !- Minimum Part Load Ratio
  ,                                       !- Maximum Part Load Ratio
  ,                                       !- Optimum Part Load Ratio
  {3caa49f8-736c-43c9-aaaf-1e9b70839c9d}, !- Boiler Water Inlet Node Name
  {5cac0854-a31d-4417-8e25-152f78fa2e74}, !- Boiler Water Outlet Node Name
  99,                                     !- Water Outlet Upper Temperature Limit {C}
  ConstantFlow,                           !- Boiler Flow Mode
  0,                                      !- Parasitic Electric Load {W}
  1;                                      !- Sizing Factor

OS:Node,
  {c0155834-b61d-408b-895f-d82044c5ffc7}, !- Handle
  Node 10,                                !- Name
  {acfd9c11-0359-4c1a-a3fc-d8bcff9b2f84}, !- Inlet Port
  {3caa49f8-736c-43c9-aaaf-1e9b70839c9d}; !- Outlet Port

OS:Connection,
  {acfd9c11-0359-4c1a-a3fc-d8bcff9b2f84}, !- Handle
  {90df10c9-21db-428f-bd09-4dc69fb86532}, !- Name
  {a066e32c-1bda-406d-9871-aae382fe0e47}, !- Source Object
  4,                                      !- Outlet Port
  {c0155834-b61d-408b-895f-d82044c5ffc7}, !- Target Object
  2;                                      !- Inlet Port

OS:Node,
  {8b462f2b-57ab-4288-98e4-5210fa93b203}, !- Handle
  Node 11,                                !- Name
  {5cac0854-a31d-4417-8e25-152f78fa2e74}, !- Inlet Port
  {db694575-5ec7-4a11-be51-51d25486b184}; !- Outlet Port

OS:Connection,
  {3caa49f8-736c-43c9-aaaf-1e9b70839c9d}, !- Handle
  {343febca-098d-4116-b4d8-c3658b400105}, !- Name
  {c0155834-b61d-408b-895f-d82044c5ffc7}, !- Source Object
  3,                                      !- Outlet Port
  {c228cd50-fede-4629-8938-d63001ad3924}, !- Target Object
  12;                                     !- Inlet Port

OS:Connection,
  {5cac0854-a31d-4417-8e25-152f78fa2e74}, !- Handle
  {9f4eee49-82e4-4e46-a914-9e5cc17c2d2d}, !- Name
  {c228cd50-fede-4629-8938-d63001ad3924}, !- Source Object
  13,                                     !- Outlet Port
  {8b462f2b-57ab-4288-98e4-5210fa93b203}, !- Target Object
  2;                                      !- Inlet Port

! TrackingID:#[FUIqst]
OS:Pump:ConstantSpeed,
  {89e80e58-c6e9-4faf-9d53-f13bffd76ccc}, !- Handle
  Pump Constant Speed 1,                  !- Name
  {db694575-5ec7-4a11-be51-51d25486b184}, !- Inlet Node Name
  {0d4e7c89-0364-4013-8532-6a47fa62d317}, !- Outlet Node Name
  autosize,                               !- Rated Flow Rate {m3/s}
  179352,                                 !- Rated Pump Head {Pa}
  autosize,                               !- Rated Power Consumption {W}
  0.9,                                    !- Motor Efficiency
  0,                                      !- Fraction of Motor Inefficiencies to Fluid Stream
  Intermittent,                           !- Pump Control Type
  ,                                       !- Pump Flow Rate Schedule
  ,                                       !- Pump Curve
  ,                                       !- Impeller Diameter {m}
  ,                                       !- Rotational Speed {rev/min}
  ,                                       !- Zone
  ,                                       !- Skin Loss Radiative Fraction
  PowerPerFlowPerPressure,                !- Design Power Sizing Method
  348701.1,                               !- Design Electric Power per Unit Flow Rate {W/(m3/s)}
  1.282051282;                            !- Design Shaft Power per Unit Flow Rate per Unit Head {W-s/m3-Pa}

OS:Node,
  {9bb93fe7-dab4-4dee-bf7c-29a7f4fe5373}, !- Handle
  Node 12,                                !- Name
  {0d4e7c89-0364-4013-8532-6a47fa62d317}, !- Inlet Port
  {9f2e15bb-e6ee-4ad6-beb3-e6aea68a919f}; !- Outlet Port

OS:Connection,
  {db694575-5ec7-4a11-be51-51d25486b184}, !- Handle
  {3d199005-a0c7-4cb9-b9a0-d93374e845ae}, !- Name
  {8b462f2b-57ab-4288-98e4-5210fa93b203}, !- Source Object
  3,                                      !- Outlet Port
  {89e80e58-c6e9-4faf-9d53-f13bffd76ccc}, !- Target Object
  2;                                      !- Inlet Port

OS:Connection,
  {0d4e7c89-0364-4013-8532-6a47fa62d317}, !- Handle
  {053994af-ab03-4569-ae49-9aea582b23ba}, !- Name
  {89e80e58-c6e9-4faf-9d53-f13bffd76ccc}, !- Source Object
  3,                                      !- Outlet Port
  {9bb93fe7-dab4-4dee-bf7c-29a7f4fe5373}, !- Target Object
  2;                                      !- Inlet Port

OS:Connection,
  {9f2e15bb-e6ee-4ad6-beb3-e6aea68a919f}, !- Handle
  {71277913-7b63-4695-bf21-aadf7d4c0b9c}, !- Name
  {9bb93fe7-dab4-4dee-bf7c-29a7f4fe5373}, !- Source Object
  3,                                      !- Outlet Port
  {fa5c1ebf-b1a8-4d01-9b19-cee3ebe7c58a}, !- Target Object
  4;                                      !- Inlet Port

