
OS:Version,
  {d824f106-e537-42aa-97f2-8cef94579c41}, !- Handle
  2.4.0;                                  !- Version Identifier

! TrackingID:#[5FmA2A]
OS:PlantLoop,
  {56672213-b005-41d7-bef1-241a828f95a0}, !- Handle
  Plant Loop 1,                           !- Name
  ,                                       !- Fluid Type
  0,                                      !- Glycol Concentration
  ,                                       !- User Defined Fluid Type
  ,                                       !- Plant Equipment Operation Heating Load
  ,                                       !- Plant Equipment Operation Cooling Load
  ,                                       !- Primary Plant Equipment Operation Scheme
  {6a77d406-f7d7-4213-8f0b-ca4d58b6c2a3}, !- Loop Temperature Setpoint Node Name
  ,                                       !- Maximum Loop Temperature {C}
  ,                                       !- Minimum Loop Temperature {C}
  ,                                       !- Maximum Loop Flow Rate {m3/s}
  ,                                       !- Minimum Loop Flow Rate {m3/s}
  Autocalculate,                          !- Plant Loop Volume {m3}
  {4daa7c6a-0d0a-45a3-a56e-88db4fe046ee}, !- Plant Side Inlet Node Name
  {06ef6911-fda1-49c1-ba9a-a80e7971f0b4}, !- Plant Side Outlet Node Name
  ,                                       !- Plant Side Branch List Name
  {23c582a0-c850-4f79-b8f5-60a527548a62}, !- Demand Side Inlet Node Name
  {35c9b45b-b3b5-4928-93ef-d2edcb9b1b5e}, !- Demand Side Outlet Node Name
  ,                                       !- Demand Side Branch List Name
  ,                                       !- Demand Side Connector List Name
  Optimal,                                !- Load Distribution Scheme
  {38f354ff-813c-4112-8c4c-942843f3b0c8}, !- Availability Manager List Name
  ,                                       !- Plant Loop Demand Calculation Scheme
  ,                                       !- Common Pipe Simulation
  ,                                       !- Pressure Simulation Type
  ,                                       !- Plant Equipment Operation Heating Load Schedule
  ,                                       !- Plant Equipment Operation Cooling Load Schedule
  ,                                       !- Primary Plant Equipment Operation Scheme Schedule
  ,                                       !- Component Setpoint Operation Scheme Schedule
  {fa36e5d2-6142-4cef-851c-24c64a32aeb7}, !- Demand Mixer Name
  {ce06e992-e836-4bb5-8d42-76dc1d160dff}, !- Demand Splitter Name
  {91220b40-21b5-4c17-92a9-17399f6acd25}, !- Supply Mixer Name
  {c8326466-e0c6-41a2-afb4-f100633a0e25}; !- Supply Splitter Name

OS:Sizing:Plant,
  {349df3bf-9e4d-4150-b95e-361cbd0fc793}, !- Handle
  {56672213-b005-41d7-bef1-241a828f95a0}, !- Plant or Condenser Loop Name
  Heating,                                !- Loop Type
  82,                                     !- Design Loop Exit Temperature {C}
  11,                                     !- Loop Design Temperature Difference {deltaC}
  NonCoincident,                          !- Sizing Option
  1,                                      !- Zone Timesteps in Averaging Window
  None;                                   !- Coincident Sizing Factor Mode

OS:Node,
  {e3fa88a2-ec22-4ba7-9fda-4df27dd6e293}, !- Handle
  Node 1,                                 !- Name
  {4daa7c6a-0d0a-45a3-a56e-88db4fe046ee}, !- Inlet Port
  {f16a4b66-959f-4dfc-bf86-3091a26b9cd5}; !- Outlet Port

OS:Node,
  {6a77d406-f7d7-4213-8f0b-ca4d58b6c2a3}, !- Handle
  Node 2,                                 !- Name
  {a3ce6a9c-cd65-45c9-addb-fbd49eca0452}, !- Inlet Port
  {06ef6911-fda1-49c1-ba9a-a80e7971f0b4}; !- Outlet Port

OS:Node,
  {a5cd1e67-96bf-4651-ace2-23866b494d30}, !- Handle
  Node 3,                                 !- Name
  {924ac340-dba3-4d69-a5ad-b8141ac02cd9}, !- Inlet Port
  {ae9549ef-90f3-45bc-8999-87b26640ed19}; !- Outlet Port

OS:Connector:Mixer,
  {91220b40-21b5-4c17-92a9-17399f6acd25}, !- Handle
  Connector Mixer 1,                      !- Name
  {a3ce6a9c-cd65-45c9-addb-fbd49eca0452}, !- Outlet Branch Name
  {93cff9a5-d2bd-49dd-a455-9d55c400465c}; !- Inlet Branch Name 1

OS:Connector:Splitter,
  {c8326466-e0c6-41a2-afb4-f100633a0e25}, !- Handle
  Connector Splitter 1,                   !- Name
  {f16a4b66-959f-4dfc-bf86-3091a26b9cd5}, !- Inlet Branch Name
  {924ac340-dba3-4d69-a5ad-b8141ac02cd9}; !- Outlet Branch Name 1

OS:Connection,
  {4daa7c6a-0d0a-45a3-a56e-88db4fe046ee}, !- Handle
  {af6443bb-e693-41dc-8a68-7129265a2292}, !- Name
  {56672213-b005-41d7-bef1-241a828f95a0}, !- Source Object
  14,                                     !- Outlet Port
  {e3fa88a2-ec22-4ba7-9fda-4df27dd6e293}, !- Target Object
  2;                                      !- Inlet Port

OS:Connection,
  {f16a4b66-959f-4dfc-bf86-3091a26b9cd5}, !- Handle
  {4f3ad936-9dcd-47e6-8375-492397a28d38}, !- Name
  {e3fa88a2-ec22-4ba7-9fda-4df27dd6e293}, !- Source Object
  3,                                      !- Outlet Port
  {c8326466-e0c6-41a2-afb4-f100633a0e25}, !- Target Object
  2;                                      !- Inlet Port

OS:Connection,
  {924ac340-dba3-4d69-a5ad-b8141ac02cd9}, !- Handle
  {9e6b979d-1e3d-4cb7-8c93-85e85ac3c277}, !- Name
  {c8326466-e0c6-41a2-afb4-f100633a0e25}, !- Source Object
  3,                                      !- Outlet Port
  {a5cd1e67-96bf-4651-ace2-23866b494d30}, !- Target Object
  2;                                      !- Inlet Port

OS:Connection,
  {a3ce6a9c-cd65-45c9-addb-fbd49eca0452}, !- Handle
  {f0aaa883-bb1c-4784-91de-29fcad2ad5e2}, !- Name
  {91220b40-21b5-4c17-92a9-17399f6acd25}, !- Source Object
  2,                                      !- Outlet Port
  {6a77d406-f7d7-4213-8f0b-ca4d58b6c2a3}, !- Target Object
  2;                                      !- Inlet Port

OS:Connection,
  {06ef6911-fda1-49c1-ba9a-a80e7971f0b4}, !- Handle
  {87b76fbe-1b9c-4274-9463-a1414637241e}, !- Name
  {6a77d406-f7d7-4213-8f0b-ca4d58b6c2a3}, !- Source Object
  3,                                      !- Outlet Port
  {56672213-b005-41d7-bef1-241a828f95a0}, !- Target Object
  15;                                     !- Inlet Port

OS:Node,
  {e18fcc4f-eb24-4a79-8690-daa6e1723fa6}, !- Handle
  Node 4,                                 !- Name
  {23c582a0-c850-4f79-b8f5-60a527548a62}, !- Inlet Port
  {0b17953b-6cb4-4915-8ae0-c80b2e4a671a}; !- Outlet Port

OS:Node,
  {fba94ba3-4c8d-451f-bec0-fb6fc4945108}, !- Handle
  Node 5,                                 !- Name
  {ce2d9dd6-c01d-48b2-992c-2553ccfc47f6}, !- Inlet Port
  {35c9b45b-b3b5-4928-93ef-d2edcb9b1b5e}; !- Outlet Port

OS:Node,
  {fce3a159-67a5-4594-83ce-135ddfce3d09}, !- Handle
  Node 6,                                 !- Name
  {f7607681-a7a8-49db-bd29-921a40d2ebfd}, !- Inlet Port
  {ae91531f-b465-4a94-8acc-e47fb8837cce}; !- Outlet Port

OS:Connector:Mixer,
  {fa36e5d2-6142-4cef-851c-24c64a32aeb7}, !- Handle
  Connector Mixer 2,                      !- Name
  {ce2d9dd6-c01d-48b2-992c-2553ccfc47f6}, !- Outlet Branch Name
  {ae91531f-b465-4a94-8acc-e47fb8837cce}; !- Inlet Branch Name 1

OS:Connector:Splitter,
  {ce06e992-e836-4bb5-8d42-76dc1d160dff}, !- Handle
  Connector Splitter 2,                   !- Name
  {0b17953b-6cb4-4915-8ae0-c80b2e4a671a}, !- Inlet Branch Name
  {f7607681-a7a8-49db-bd29-921a40d2ebfd}; !- Outlet Branch Name 1

OS:Connection,
  {23c582a0-c850-4f79-b8f5-60a527548a62}, !- Handle
  {66554748-0924-4655-90e6-e70b64b49703}, !- Name
  {56672213-b005-41d7-bef1-241a828f95a0}, !- Source Object
  17,                                     !- Outlet Port
  {e18fcc4f-eb24-4a79-8690-daa6e1723fa6}, !- Target Object
  2;                                      !- Inlet Port

OS:Connection,
  {0b17953b-6cb4-4915-8ae0-c80b2e4a671a}, !- Handle
  {2557a755-f1f5-43c4-8cf3-bfc10f4dcb95}, !- Name
  {e18fcc4f-eb24-4a79-8690-daa6e1723fa6}, !- Source Object
  3,                                      !- Outlet Port
  {ce06e992-e836-4bb5-8d42-76dc1d160dff}, !- Target Object
  2;                                      !- Inlet Port

OS:Connection,
  {f7607681-a7a8-49db-bd29-921a40d2ebfd}, !- Handle
  {a5484b55-702b-4e83-8022-2dab5af90492}, !- Name
  {ce06e992-e836-4bb5-8d42-76dc1d160dff}, !- Source Object
  3,                                      !- Outlet Port
  {fce3a159-67a5-4594-83ce-135ddfce3d09}, !- Target Object
  2;                                      !- Inlet Port

OS:Connection,
  {ae91531f-b465-4a94-8acc-e47fb8837cce}, !- Handle
  {21908fc4-b760-4448-a601-fc6cf7c676de}, !- Name
  {fce3a159-67a5-4594-83ce-135ddfce3d09}, !- Source Object
  3,                                      !- Outlet Port
  {fa36e5d2-6142-4cef-851c-24c64a32aeb7}, !- Target Object
  3;                                      !- Inlet Port

OS:Connection,
  {ce2d9dd6-c01d-48b2-992c-2553ccfc47f6}, !- Handle
  {f97eeb1f-238b-4f86-8fdc-0fed82a6264d}, !- Name
  {fa36e5d2-6142-4cef-851c-24c64a32aeb7}, !- Source Object
  2,                                      !- Outlet Port
  {fba94ba3-4c8d-451f-bec0-fb6fc4945108}, !- Target Object
  2;                                      !- Inlet Port

OS:Connection,
  {35c9b45b-b3b5-4928-93ef-d2edcb9b1b5e}, !- Handle
  {9c5da7b5-075a-47e6-914d-ea75d027974f}, !- Name
  {fba94ba3-4c8d-451f-bec0-fb6fc4945108}, !- Source Object
  3,                                      !- Outlet Port
  {56672213-b005-41d7-bef1-241a828f95a0}, !- Target Object
  18;                                     !- Inlet Port

OS:AvailabilityManagerAssignmentList,
  {38f354ff-813c-4112-8c4c-942843f3b0c8}, !- Handle
  Plant Loop 1 AvailabilityManagerAssignmentList; !- Name

! TrackingID:#[iGIcAf]
OS:Sizing:Plant,
  {6f642625-f3fe-49a5-8407-067acf98c944}, !- Handle
  {56672213-b005-41d7-bef1-241a828f95a0}, !- Plant or Condenser Loop Name
  Heating,                                !- Loop Type
  82,                                     !- Design Loop Exit Temperature {C}
  11,                                     !- Loop Design Temperature Difference {deltaC}
  NonCoincident,                          !- Sizing Option
  1,                                      !- Zone Timesteps in Averaging Window
  None;                                   !- Coincident Sizing Factor Mode

! TrackingID:#[r1s0Nf]
OS:Chiller:Electric:EIR,
  {4c69254e-ea37-4b7c-8bf3-41b5b9508bd9}, !- Handle
  Chiller Electric EIR 1,                 !- Name
  Autosize,                               !- Reference Capacity {W}
  5.5,                                    !- Reference COP {W/W}
  ,                                       !- Reference Leaving Chilled Water Temperature {C}
  ,                                       !- Reference Entering Condenser Fluid Temperature {C}
  ,                                       !- Reference Chilled Water Flow Rate {m3/s}
  ,                                       !- Reference Condenser Fluid Flow Rate {m3/s}
  {3f64cae6-afa2-4620-b26f-f954b8324db9}, !- Cooling Capacity Function of Temperature Curve Name
  {550b99d8-f023-40ed-9aed-3ba6bdeecaa4}, !- Electric Input to Cooling Output Ratio Function of Temperature Curve Name
  {1105a261-debc-4bd9-8aac-2e74ee159379}, !- Electric Input to Cooling Output Ratio Function of Part Load Ratio Curve Name
  ,                                       !- Minimum Part Load Ratio
  ,                                       !- Maximum Part Load Ratio
  ,                                       !- Optimum Part Load Ratio
  ,                                       !- Minimum Unloading Ratio
  {ae9549ef-90f3-45bc-8999-87b26640ed19}, !- Chilled Water Inlet Node Name
  {6cacd843-5e33-4dde-98f8-630618972b2e}, !- Chilled Water Outlet Node Name
  {79ecfc05-c1b3-436e-9a93-0cc9c0899ead}, !- Condenser Inlet Node Name
  {ff09dd1d-80b6-4f38-ab64-113ea75b269c}, !- Condenser Outlet Node Name
  WaterCooled,                            !- Condenser Type
  ,                                       !- Condenser Fan Power Ratio {W/W}
  ,                                       !- Compressor Motor Efficiency
  ,                                       !- Leaving Chilled Water Lower Temperature Limit {C}
  ,                                       !- Chiller Flow Mode
  0,                                      !- Design Heat Recovery Water Flow Rate {m3/s}
  ,                                       !- Heat Recovery Inlet Node Name
  ,                                       !- Heat Recovery Outlet Node Name
  1,                                      !- Sizing Factor
  0,                                      !- Basin Heater Capacity {W/K}
  10,                                     !- Basin Heater Setpoint Temperature {C}
  ;                                       !- Basin Heater Operating Schedule Name

OS:Curve:Biquadratic,
  {3f64cae6-afa2-4620-b26f-f954b8324db9}, !- Handle
  Curve Biquadratic 1,                    !- Name
  1.0215158,                              !- Coefficient1 Constant
  0.037035864,                            !- Coefficient2 x
  0.0002332476,                           !- Coefficient3 x**2
  -0.003894048,                           !- Coefficient4 y
  -6.52536e-005,                          !- Coefficient5 y**2
  -0.0002680452,                          !- Coefficient6 x*y
  5,                                      !- Minimum Value of x
  10,                                     !- Maximum Value of x
  24,                                     !- Minimum Value of y
  35;                                     !- Maximum Value of y

OS:Curve:Biquadratic,
  {550b99d8-f023-40ed-9aed-3ba6bdeecaa4}, !- Handle
  Curve Biquadratic 2,                    !- Name
  0.70176857,                             !- Coefficient1 Constant
  -0.00452016,                            !- Coefficient2 x
  0.0005331096,                           !- Coefficient3 x**2
  -0.005498208,                           !- Coefficient4 y
  0.0005445792,                           !- Coefficient5 y**2
  -0.0007290324,                          !- Coefficient6 x*y
  5,                                      !- Minimum Value of x
  10,                                     !- Maximum Value of x
  24,                                     !- Minimum Value of y
  35;                                     !- Maximum Value of y

OS:Curve:Quadratic,
  {1105a261-debc-4bd9-8aac-2e74ee159379}, !- Handle
  Curve Quadratic 1,                      !- Name
  0.06369119,                             !- Coefficient1 Constant
  0.58488832,                             !- Coefficient2 x
  0.35280274,                             !- Coefficient3 x**2
  0,                                      !- Minimum Value of x
  1;                                      !- Maximum Value of x

OS:Node,
  {a714fddd-11d5-4a5a-b669-e5fd129c76d1}, !- Handle
  Node 7,                                 !- Name
  {6cacd843-5e33-4dde-98f8-630618972b2e}, !- Inlet Port
  {93cff9a5-d2bd-49dd-a455-9d55c400465c}; !- Outlet Port

OS:Connection,
  {ae9549ef-90f3-45bc-8999-87b26640ed19}, !- Handle
  {9d3040d1-5eee-425e-930b-67ce56935973}, !- Name
  {a5cd1e67-96bf-4651-ace2-23866b494d30}, !- Source Object
  3,                                      !- Outlet Port
  {4c69254e-ea37-4b7c-8bf3-41b5b9508bd9}, !- Target Object
  15;                                     !- Inlet Port

OS:Connection,
  {6cacd843-5e33-4dde-98f8-630618972b2e}, !- Handle
  {163dd5fe-6720-4fc9-80f7-1c100e67989f}, !- Name
  {4c69254e-ea37-4b7c-8bf3-41b5b9508bd9}, !- Source Object
  16,                                     !- Outlet Port
  {a714fddd-11d5-4a5a-b669-e5fd129c76d1}, !- Target Object
  2;                                      !- Inlet Port

OS:Connection,
  {93cff9a5-d2bd-49dd-a455-9d55c400465c}, !- Handle
  {b985ddf6-bbba-4696-a33e-ee57977940c2}, !- Name
  {a714fddd-11d5-4a5a-b669-e5fd129c76d1}, !- Source Object
  3,                                      !- Outlet Port
  {91220b40-21b5-4c17-92a9-17399f6acd25}, !- Target Object
  3;                                      !- Inlet Port

! TrackingID:#[qgmTvN]
OS:PlantLoop,
  {d8bbeb3e-c31c-4364-8f75-f0b7c8152b44}, !- Handle
  Plant Loop 2,                           !- Name
  ,                                       !- Fluid Type
  0,                                      !- Glycol Concentration
  ,                                       !- User Defined Fluid Type
  ,                                       !- Plant Equipment Operation Heating Load
  ,                                       !- Plant Equipment Operation Cooling Load
  ,                                       !- Primary Plant Equipment Operation Scheme
  {9a7268d4-4eb7-4bfb-8941-30f02c014235}, !- Loop Temperature Setpoint Node Name
  ,                                       !- Maximum Loop Temperature {C}
  ,                                       !- Minimum Loop Temperature {C}
  ,                                       !- Maximum Loop Flow Rate {m3/s}
  ,                                       !- Minimum Loop Flow Rate {m3/s}
  Autocalculate,                          !- Plant Loop Volume {m3}
  {95edc79c-3ef1-4fd6-9d03-d121ce24c3e1}, !- Plant Side Inlet Node Name
  {90124c32-2801-4e8e-8813-e3f2c6df64e4}, !- Plant Side Outlet Node Name
  ,                                       !- Plant Side Branch List Name
  {3ae83bd7-8462-419f-8bd1-a9dadcae8d4d}, !- Demand Side Inlet Node Name
  {fc5229c6-6cef-4f5a-bb20-a5bad86c6c91}, !- Demand Side Outlet Node Name
  ,                                       !- Demand Side Branch List Name
  ,                                       !- Demand Side Connector List Name
  Optimal,                                !- Load Distribution Scheme
  {7368841c-1871-4be0-8d0e-00f3c4cffb3c}, !- Availability Manager List Name
  ,                                       !- Plant Loop Demand Calculation Scheme
  ,                                       !- Common Pipe Simulation
  ,                                       !- Pressure Simulation Type
  ,                                       !- Plant Equipment Operation Heating Load Schedule
  ,                                       !- Plant Equipment Operation Cooling Load Schedule
  ,                                       !- Primary Plant Equipment Operation Scheme Schedule
  ,                                       !- Component Setpoint Operation Scheme Schedule
  {c4f4bc66-e1eb-4051-8cac-0ed6abb10798}, !- Demand Mixer Name
  {38b6a1bd-5802-49eb-8237-82d61c6f732a}, !- Demand Splitter Name
  {147eb19d-7705-41eb-82b8-27907573b507}, !- Supply Mixer Name
  {4c281e0d-3d14-4668-92cb-eecee05bbc41}; !- Supply Splitter Name

OS:Sizing:Plant,
  {70b71efd-11be-410c-b518-b16b35770005}, !- Handle
  {d8bbeb3e-c31c-4364-8f75-f0b7c8152b44}, !- Plant or Condenser Loop Name
  Heating,                                !- Loop Type
  82,                                     !- Design Loop Exit Temperature {C}
  11,                                     !- Loop Design Temperature Difference {deltaC}
  NonCoincident,                          !- Sizing Option
  1,                                      !- Zone Timesteps in Averaging Window
  None;                                   !- Coincident Sizing Factor Mode

OS:Node,
  {cf1fa430-ed15-49b5-9d1b-af7e7360fbfc}, !- Handle
  Node 8,                                 !- Name
  {95edc79c-3ef1-4fd6-9d03-d121ce24c3e1}, !- Inlet Port
  {e6c36a66-9724-4f42-8dbb-f9487c2ae0e6}; !- Outlet Port

OS:Node,
  {9a7268d4-4eb7-4bfb-8941-30f02c014235}, !- Handle
  Node 9,                                 !- Name
  {c2ad4195-57c9-4a7d-bda9-207e2021b2fe}, !- Inlet Port
  {90124c32-2801-4e8e-8813-e3f2c6df64e4}; !- Outlet Port

OS:Node,
  {2a5ae4c0-c699-4afb-af73-a93cc8232490}, !- Handle
  Node 10,                                !- Name
  {eb61d354-fea2-4fcf-a413-5bdd4cd1c20f}, !- Inlet Port
  {36b560bd-d65a-47ea-9e5a-409321e54acc}; !- Outlet Port

OS:Connector:Mixer,
  {147eb19d-7705-41eb-82b8-27907573b507}, !- Handle
  Connector Mixer 3,                      !- Name
  {c2ad4195-57c9-4a7d-bda9-207e2021b2fe}, !- Outlet Branch Name
  {36b560bd-d65a-47ea-9e5a-409321e54acc}; !- Inlet Branch Name 1

OS:Connector:Splitter,
  {4c281e0d-3d14-4668-92cb-eecee05bbc41}, !- Handle
  Connector Splitter 3,                   !- Name
  {e6c36a66-9724-4f42-8dbb-f9487c2ae0e6}, !- Inlet Branch Name
  {eb61d354-fea2-4fcf-a413-5bdd4cd1c20f}; !- Outlet Branch Name 1

OS:Connection,
  {95edc79c-3ef1-4fd6-9d03-d121ce24c3e1}, !- Handle
  {549a4fae-b2f5-4527-bdde-41946e447cea}, !- Name
  {d8bbeb3e-c31c-4364-8f75-f0b7c8152b44}, !- Source Object
  14,                                     !- Outlet Port
  {cf1fa430-ed15-49b5-9d1b-af7e7360fbfc}, !- Target Object
  2;                                      !- Inlet Port

OS:Connection,
  {e6c36a66-9724-4f42-8dbb-f9487c2ae0e6}, !- Handle
  {1fb322da-66d1-44ce-af62-64af4877e199}, !- Name
  {cf1fa430-ed15-49b5-9d1b-af7e7360fbfc}, !- Source Object
  3,                                      !- Outlet Port
  {4c281e0d-3d14-4668-92cb-eecee05bbc41}, !- Target Object
  2;                                      !- Inlet Port

OS:Connection,
  {eb61d354-fea2-4fcf-a413-5bdd4cd1c20f}, !- Handle
  {d7edb1bd-0d54-427b-850a-78f93d57b0c9}, !- Name
  {4c281e0d-3d14-4668-92cb-eecee05bbc41}, !- Source Object
  3,                                      !- Outlet Port
  {2a5ae4c0-c699-4afb-af73-a93cc8232490}, !- Target Object
  2;                                      !- Inlet Port

OS:Connection,
  {36b560bd-d65a-47ea-9e5a-409321e54acc}, !- Handle
  {12e91492-f57e-4132-b463-145f880f1e4b}, !- Name
  {2a5ae4c0-c699-4afb-af73-a93cc8232490}, !- Source Object
  3,                                      !- Outlet Port
  {147eb19d-7705-41eb-82b8-27907573b507}, !- Target Object
  3;                                      !- Inlet Port

OS:Connection,
  {c2ad4195-57c9-4a7d-bda9-207e2021b2fe}, !- Handle
  {5ac796fa-ce58-4164-8f69-d2092dcef7a4}, !- Name
  {147eb19d-7705-41eb-82b8-27907573b507}, !- Source Object
  2,                                      !- Outlet Port
  {9a7268d4-4eb7-4bfb-8941-30f02c014235}, !- Target Object
  2;                                      !- Inlet Port

OS:Connection,
  {90124c32-2801-4e8e-8813-e3f2c6df64e4}, !- Handle
  {e9ef268f-bb91-4eac-a702-dd752623fbab}, !- Name
  {9a7268d4-4eb7-4bfb-8941-30f02c014235}, !- Source Object
  3,                                      !- Outlet Port
  {d8bbeb3e-c31c-4364-8f75-f0b7c8152b44}, !- Target Object
  15;                                     !- Inlet Port

OS:Node,
  {9d068dc2-fefc-4ae5-8907-30414bf6a21d}, !- Handle
  Node 11,                                !- Name
  {3ae83bd7-8462-419f-8bd1-a9dadcae8d4d}, !- Inlet Port
  {e7bcfd37-1dac-4bf3-84c1-7a6e83ee11ba}; !- Outlet Port

OS:Node,
  {57a26365-fdb7-485c-90c0-f67bf4a7fde9}, !- Handle
  Node 12,                                !- Name
  {62ef42c2-85e9-4cfc-887f-896e00acad02}, !- Inlet Port
  {fc5229c6-6cef-4f5a-bb20-a5bad86c6c91}; !- Outlet Port

OS:Node,
  {7173d2f4-aaa3-4743-a5ce-9ad91ce0e6eb}, !- Handle
  Node 13,                                !- Name
  {d671dcda-6c06-4d44-a4f6-b53daf195459}, !- Inlet Port
  {79ecfc05-c1b3-436e-9a93-0cc9c0899ead}; !- Outlet Port

OS:Connector:Mixer,
  {c4f4bc66-e1eb-4051-8cac-0ed6abb10798}, !- Handle
  Connector Mixer 4,                      !- Name
  {62ef42c2-85e9-4cfc-887f-896e00acad02}, !- Outlet Branch Name
  {eb94b87a-144f-4ba9-b28b-4531b5941bd1}; !- Inlet Branch Name 1

OS:Connector:Splitter,
  {38b6a1bd-5802-49eb-8237-82d61c6f732a}, !- Handle
  Connector Splitter 4,                   !- Name
  {e7bcfd37-1dac-4bf3-84c1-7a6e83ee11ba}, !- Inlet Branch Name
  {d671dcda-6c06-4d44-a4f6-b53daf195459}; !- Outlet Branch Name 1

OS:Connection,
  {3ae83bd7-8462-419f-8bd1-a9dadcae8d4d}, !- Handle
  {b69e6bb9-f08e-4fa7-8ab4-7eee2f624b4c}, !- Name
  {d8bbeb3e-c31c-4364-8f75-f0b7c8152b44}, !- Source Object
  17,                                     !- Outlet Port
  {9d068dc2-fefc-4ae5-8907-30414bf6a21d}, !- Target Object
  2;                                      !- Inlet Port

OS:Connection,
  {e7bcfd37-1dac-4bf3-84c1-7a6e83ee11ba}, !- Handle
  {5cc99271-779a-4b90-91ca-dc4a45e038ca}, !- Name
  {9d068dc2-fefc-4ae5-8907-30414bf6a21d}, !- Source Object
  3,                                      !- Outlet Port
  {38b6a1bd-5802-49eb-8237-82d61c6f732a}, !- Target Object
  2;                                      !- Inlet Port

OS:Connection,
  {d671dcda-6c06-4d44-a4f6-b53daf195459}, !- Handle
  {8d690722-d0fa-4d88-a55a-3f458bf0199e}, !- Name
  {38b6a1bd-5802-49eb-8237-82d61c6f732a}, !- Source Object
  3,                                      !- Outlet Port
  {7173d2f4-aaa3-4743-a5ce-9ad91ce0e6eb}, !- Target Object
  2;                                      !- Inlet Port

OS:Connection,
  {62ef42c2-85e9-4cfc-887f-896e00acad02}, !- Handle
  {cec730db-2f25-4895-b72e-57b12daf24ed}, !- Name
  {c4f4bc66-e1eb-4051-8cac-0ed6abb10798}, !- Source Object
  2,                                      !- Outlet Port
  {57a26365-fdb7-485c-90c0-f67bf4a7fde9}, !- Target Object
  2;                                      !- Inlet Port

OS:Connection,
  {fc5229c6-6cef-4f5a-bb20-a5bad86c6c91}, !- Handle
  {2779c1aa-3a02-49e4-9693-1361de690ce7}, !- Name
  {57a26365-fdb7-485c-90c0-f67bf4a7fde9}, !- Source Object
  3,                                      !- Outlet Port
  {d8bbeb3e-c31c-4364-8f75-f0b7c8152b44}, !- Target Object
  18;                                     !- Inlet Port

OS:AvailabilityManagerAssignmentList,
  {7368841c-1871-4be0-8d0e-00f3c4cffb3c}, !- Handle
  Plant Loop 2 AvailabilityManagerAssignmentList; !- Name

! TrackingID:#[FpI6XR]
OS:Sizing:Plant,
  {44039828-75a9-4189-a05b-d0bc9ef73eda}, !- Handle
  {d8bbeb3e-c31c-4364-8f75-f0b7c8152b44}, !- Plant or Condenser Loop Name
  Heating,                                !- Loop Type
  82,                                     !- Design Loop Exit Temperature {C}
  11,                                     !- Loop Design Temperature Difference {deltaC}
  NonCoincident,                          !- Sizing Option
  1,                                      !- Zone Timesteps in Averaging Window
  None;                                   !- Coincident Sizing Factor Mode

OS:Node,
  {32e4c955-0148-4ab0-8663-1b0b1cac5324}, !- Handle
  Node 14,                                !- Name
  {ff09dd1d-80b6-4f38-ab64-113ea75b269c}, !- Inlet Port
  {eb94b87a-144f-4ba9-b28b-4531b5941bd1}; !- Outlet Port

OS:Connection,
  {79ecfc05-c1b3-436e-9a93-0cc9c0899ead}, !- Handle
  {3dbed42e-c2a5-4630-9e0a-e84c6232e24f}, !- Name
  {7173d2f4-aaa3-4743-a5ce-9ad91ce0e6eb}, !- Source Object
  3,                                      !- Outlet Port
  {4c69254e-ea37-4b7c-8bf3-41b5b9508bd9}, !- Target Object
  17;                                     !- Inlet Port

OS:Connection,
  {ff09dd1d-80b6-4f38-ab64-113ea75b269c}, !- Handle
  {db91d81d-5f9d-4844-a16e-1581c5f05bf3}, !- Name
  {4c69254e-ea37-4b7c-8bf3-41b5b9508bd9}, !- Source Object
  18,                                     !- Outlet Port
  {32e4c955-0148-4ab0-8663-1b0b1cac5324}, !- Target Object
  2;                                      !- Inlet Port

OS:Connection,
  {eb94b87a-144f-4ba9-b28b-4531b5941bd1}, !- Handle
  {e96a3810-5c55-4122-96e4-d1ae790edb82}, !- Name
  {32e4c955-0148-4ab0-8663-1b0b1cac5324}, !- Source Object
  3,                                      !- Outlet Port
  {c4f4bc66-e1eb-4051-8cac-0ed6abb10798}, !- Target Object
  3;                                      !- Inlet Port

