
OS:Version,
  {a5c13a33-483c-48fc-99b3-62ab4a3c80a3}, !- Handle
  2.4.0;                                  !- Version Identifier

OS:AirLoopHVAC,
  {a53b85cc-3bf7-4fc5-ae44-595ebcfb7eeb}, !- Handle
  Air Loop HVAC 1,                        !- Name
  ,                                       !- Controller List Name
  {58f7357e-2e73-4c92-a2d5-21ff14ed6a40}, !- Availability Schedule
  {378c1a9d-5124-4699-9a7e-ada142d3b280}, !- Availability Manager List Name
  AutoSize,                               !- Design Supply Air Flow Rate {m3/s}
  ,                                       !- Branch List Name
  ,                                       !- Connector List Name
  {06d4f1cf-5459-4610-8785-b92e160e9171}, !- Supply Side Inlet Node Name
  {2b9f60fa-5fdf-40d5-8d08-ee24575c51b4}, !- Demand Side Outlet Node Name
  {962d0a30-131b-4e6a-88d5-18a4a113c698}, !- Demand Side Inlet Node A
  {b8908a0c-4c51-4ec5-ac10-69b5d0eb559a}, !- Supply Side Outlet Node A
  ,                                       !- Demand Side Inlet Node B
  ,                                       !- Supply Side Outlet Node B
  ,                                       !- Return Air Bypass Flow Temperature Setpoint Schedule Name
  {b85e062f-3f67-46ff-b14a-17ca3ba6dea9}, !- Demand Mixer Name
  {b5fc6089-2019-4459-96a2-26c04ed3f355}, !- Demand Splitter A Name
  ,                                       !- Demand Splitter B Name
  ;                                       !- Supply Splitter Name

OS:Node,
  {4dc8b48a-615a-4456-bb07-330a1932c477}, !- Handle
  Node 1,                                 !- Name
  {06d4f1cf-5459-4610-8785-b92e160e9171}, !- Inlet Port
  {244d4c0b-c62e-4cbb-a2a3-55873dbe2f25}; !- Outlet Port

OS:Node,
  {68e52fe1-c65d-4c68-92ba-7505dcc52c61}, !- Handle
  Node 2,                                 !- Name
  {99be392a-fb87-4030-b201-72b31fa94182}, !- Inlet Port
  {b8908a0c-4c51-4ec5-ac10-69b5d0eb559a}; !- Outlet Port

OS:Connection,
  {06d4f1cf-5459-4610-8785-b92e160e9171}, !- Handle
  {d42fd49f-aef0-4532-880e-a012e2a578c2}, !- Name
  {a53b85cc-3bf7-4fc5-ae44-595ebcfb7eeb}, !- Source Object
  8,                                      !- Outlet Port
  {4dc8b48a-615a-4456-bb07-330a1932c477}, !- Target Object
  2;                                      !- Inlet Port

OS:Connection,
  {b8908a0c-4c51-4ec5-ac10-69b5d0eb559a}, !- Handle
  {40f48a31-e693-4fa6-a659-4fd3d59715d9}, !- Name
  {68e52fe1-c65d-4c68-92ba-7505dcc52c61}, !- Source Object
  3,                                      !- Outlet Port
  {a53b85cc-3bf7-4fc5-ae44-595ebcfb7eeb}, !- Target Object
  11;                                     !- Inlet Port

OS:Node,
  {637124cb-5b39-4e46-8212-761685f1eb57}, !- Handle
  Node 3,                                 !- Name
  {962d0a30-131b-4e6a-88d5-18a4a113c698}, !- Inlet Port
  {d66ea365-4e20-48ae-b441-23dfadeffcb7}; !- Outlet Port

OS:Node,
  {28b13929-bbb7-4f1a-9f41-188025d99e22}, !- Handle
  Node 4,                                 !- Name
  {865fe555-970d-4f79-9aa4-fd0e086d0d61}, !- Inlet Port
  {2b9f60fa-5fdf-40d5-8d08-ee24575c51b4}; !- Outlet Port

OS:Node,
  {fb80dcb9-36bf-4fc5-aed9-fb2aa69828e8}, !- Handle
  Node 5,                                 !- Name
  {1c8d3594-e5e6-4f49-ac0b-8e61194edb99}, !- Inlet Port
  {7b8ad242-ba37-4e9d-b800-ce709d101acc}; !- Outlet Port

OS:Connection,
  {962d0a30-131b-4e6a-88d5-18a4a113c698}, !- Handle
  {bbdeed6f-7b23-4e02-a4ae-05abb3796710}, !- Name
  {a53b85cc-3bf7-4fc5-ae44-595ebcfb7eeb}, !- Source Object
  10,                                     !- Outlet Port
  {637124cb-5b39-4e46-8212-761685f1eb57}, !- Target Object
  2;                                      !- Inlet Port

OS:Connection,
  {2b9f60fa-5fdf-40d5-8d08-ee24575c51b4}, !- Handle
  {2be2761e-7180-495b-9d56-029d3337f6a1}, !- Name
  {28b13929-bbb7-4f1a-9f41-188025d99e22}, !- Source Object
  3,                                      !- Outlet Port
  {a53b85cc-3bf7-4fc5-ae44-595ebcfb7eeb}, !- Target Object
  9;                                      !- Inlet Port

OS:AirLoopHVAC:ZoneSplitter,
  {b5fc6089-2019-4459-96a2-26c04ed3f355}, !- Handle
  Air Loop HVAC Zone Splitter 1,          !- Name
  {d66ea365-4e20-48ae-b441-23dfadeffcb7}, !- Inlet Node Name
  {1c8d3594-e5e6-4f49-ac0b-8e61194edb99}; !- Outlet Node Name 1

OS:AirLoopHVAC:ZoneMixer,
  {b85e062f-3f67-46ff-b14a-17ca3ba6dea9}, !- Handle
  Air Loop HVAC Zone Mixer 1,             !- Name
  {865fe555-970d-4f79-9aa4-fd0e086d0d61}, !- Outlet Node Name
  {7b8ad242-ba37-4e9d-b800-ce709d101acc}; !- Inlet Node Name 1

OS:Connection,
  {d66ea365-4e20-48ae-b441-23dfadeffcb7}, !- Handle
  {8730bbb5-02f0-4d23-81a1-9f396d8d2119}, !- Name
  {637124cb-5b39-4e46-8212-761685f1eb57}, !- Source Object
  3,                                      !- Outlet Port
  {b5fc6089-2019-4459-96a2-26c04ed3f355}, !- Target Object
  2;                                      !- Inlet Port

OS:Connection,
  {1c8d3594-e5e6-4f49-ac0b-8e61194edb99}, !- Handle
  {431b91e5-3bb5-4b4a-937d-0623d88c25f5}, !- Name
  {b5fc6089-2019-4459-96a2-26c04ed3f355}, !- Source Object
  3,                                      !- Outlet Port
  {fb80dcb9-36bf-4fc5-aed9-fb2aa69828e8}, !- Target Object
  2;                                      !- Inlet Port

OS:Connection,
  {7b8ad242-ba37-4e9d-b800-ce709d101acc}, !- Handle
  {b7b878c1-37ee-455d-b43e-e1d4255d1216}, !- Name
  {fb80dcb9-36bf-4fc5-aed9-fb2aa69828e8}, !- Source Object
  3,                                      !- Outlet Port
  {b85e062f-3f67-46ff-b14a-17ca3ba6dea9}, !- Target Object
  3;                                      !- Inlet Port

OS:Connection,
  {865fe555-970d-4f79-9aa4-fd0e086d0d61}, !- Handle
  {d32cd4e2-342a-4d9b-ae7d-e0a6c02417a9}, !- Name
  {b85e062f-3f67-46ff-b14a-17ca3ba6dea9}, !- Source Object
  2,                                      !- Outlet Port
  {28b13929-bbb7-4f1a-9f41-188025d99e22}, !- Target Object
  2;                                      !- Inlet Port

OS:Sizing:System,
  {b81e4dd7-2ce2-4201-b5a0-1410de266c90}, !- Handle
  {a53b85cc-3bf7-4fc5-ae44-595ebcfb7eeb}, !- AirLoop Name
  Sensible,                               !- Type of Load to Size On
  Autosize,                               !- Design Outdoor Air Flow Rate {m3/s}
  0.3,                                    !- Minimum System Air Flow Ratio
  7,                                      !- Preheat Design Temperature {C}
  0.008,                                  !- Preheat Design Humidity Ratio {kg-H2O/kg-Air}
  12.8,                                   !- Precool Design Temperature {C}
  0.008,                                  !- Precool Design Humidity Ratio {kg-H2O/kg-Air}
  12.8,                                   !- Central Cooling Design Supply Air Temperature {C}
  16.7,                                   !- Central Heating Design Supply Air Temperature {C}
  NonCoincident,                          !- Sizing Option
  Yes,                                    !- 100% Outdoor Air in Cooling
  Yes,                                    !- 100% Outdoor Air in Heating
  0.0085,                                 !- Central Cooling Design Supply Air Humidity Ratio {kg-H2O/kg-Air}
  0.008,                                  !- Central Heating Design Supply Air Humidity Ratio {kg-H2O/kg-Air}
  DesignDay,                              !- Cooling Design Air Flow Method
  0,                                      !- Cooling Design Air Flow Rate {m3/s}
  DesignDay,                              !- Heating Design Air Flow Method
  0,                                      !- Heating Design Air Flow Rate {m3/s}
  ZoneSum,                                !- System Outdoor Air Method
  1,                                      !- Zone Maximum Outdoor Air Fraction {dimensionless}
  0.0099676501,                           !- Cooling Supply Air Flow Rate Per Floor Area {m3/s-m2}
  1,                                      !- Cooling Fraction of Autosized Cooling Supply Air Flow Rate
  3.9475456e-005,                         !- Cooling Supply Air Flow Rate Per Unit Cooling Capacity {m3/s-W}
  0.0099676501,                           !- Heating Supply Air Flow Rate Per Floor Area {m3/s-m2}
  1,                                      !- Heating Fraction of Autosized Heating Supply Air Flow Rate
  1,                                      !- Heating Fraction of Autosized Cooling Supply Air Flow Rate
  3.1588213e-005,                         !- Heating Supply Air Flow Rate Per Unit Heating Capacity {m3/s-W}
  CoolingDesignCapacity,                  !- Cooling Design Capacity Method
  autosize,                               !- Cooling Design Capacity {W}
  234.7,                                  !- Cooling Design Capacity Per Floor Area {W/m2}
  1,                                      !- Fraction of Autosized Cooling Design Capacity
  HeatingDesignCapacity,                  !- Heating Design Capacity Method
  autosize,                               !- Heating Design Capacity {W}
  157,                                    !- Heating Design Capacity Per Floor Area {W/m2}
  1,                                      !- Fraction of Autosized Heating Design Capacity
  OnOff;                                  !- Central Cooling Capacity Control Method

OS:Schedule:Constant,
  {58f7357e-2e73-4c92-a2d5-21ff14ed6a40}, !- Handle
  Always On Discrete,                     !- Name
  {1c42574e-6e5a-4e7d-ae0e-1df2620da461}, !- Schedule Type Limits Name
  1;                                      !- Value

OS:ScheduleTypeLimits,
  {1c42574e-6e5a-4e7d-ae0e-1df2620da461}, !- Handle
  OnOff,                                  !- Name
  0,                                      !- Lower Limit Value
  1,                                      !- Upper Limit Value
  Discrete,                               !- Numeric Type
  Availability;                           !- Unit Type

OS:AvailabilityManagerAssignmentList,
  {378c1a9d-5124-4699-9a7e-ada142d3b280}, !- Handle
  Air Loop HVAC 1 AvailabilityManagerAssignmentList; !- Name

OS:Coil:Heating:Water,
  {14257688-2cf6-4fdb-9e91-9f90c1949f74}, !- Handle
  Coil Heating Water 1[#8miPBt],          !- Name
  {58f7357e-2e73-4c92-a2d5-21ff14ed6a40}, !- Availability Schedule Name
  ,                                       !- U-Factor Times Area Value {W/K}
  ,                                       !- Maximum Water Flow Rate {m3/s}
  ,                                       !- Water Inlet Node Name
  ,                                       !- Water Outlet Node Name
  {244d4c0b-c62e-4cbb-a2a3-55873dbe2f25}, !- Air Inlet Node Name
  {99be392a-fb87-4030-b201-72b31fa94182}, !- Air Outlet Node Name
  ,                                       !- Performance Input Method
  ,                                       !- Rated Capacity {W}
  ,                                       !- Rated Inlet Water Temperature {C}
  ,                                       !- Rated Inlet Air Temperature {C}
  ,                                       !- Rated Outlet Water Temperature {C}
  ,                                       !- Rated Outlet Air Temperature {C}
  ;                                       !- Rated Ratio for Air and Water Convection

OS:Connection,
  {244d4c0b-c62e-4cbb-a2a3-55873dbe2f25}, !- Handle
  {c73d7c71-8869-4c4c-a34c-26d46c90d5c8}, !- Name
  {4dc8b48a-615a-4456-bb07-330a1932c477}, !- Source Object
  3,                                      !- Outlet Port
  {14257688-2cf6-4fdb-9e91-9f90c1949f74}, !- Target Object
  7;                                      !- Inlet Port

OS:Connection,
  {99be392a-fb87-4030-b201-72b31fa94182}, !- Handle
  {b63b4e1b-01e6-42a5-b0a6-eee8c3384325}, !- Name
  {14257688-2cf6-4fdb-9e91-9f90c1949f74}, !- Source Object
  8,                                      !- Outlet Port
  {68e52fe1-c65d-4c68-92ba-7505dcc52c61}, !- Target Object
  2;                                      !- Inlet Port

