
OS:Version,
  {8e9e259b-2866-4d56-b13c-d6c326c9f250}, !- Handle
  2.4.0;                                  !- Version Identifier

! TrackingID:#[P9MHrt]
OS:PlantLoop,
  {d0b5b7f1-0175-453a-89ef-0e592a269064}, !- Handle
  Plant Loop 1,                           !- Name
  ,                                       !- Fluid Type
  0,                                      !- Glycol Concentration
  ,                                       !- User Defined Fluid Type
  ,                                       !- Plant Equipment Operation Heating Load
  ,                                       !- Plant Equipment Operation Cooling Load
  ,                                       !- Primary Plant Equipment Operation Scheme
  {de24f4dc-4f3a-4168-bde4-e851ea08a9f3}, !- Loop Temperature Setpoint Node Name
  ,                                       !- Maximum Loop Temperature {C}
  ,                                       !- Minimum Loop Temperature {C}
  ,                                       !- Maximum Loop Flow Rate {m3/s}
  ,                                       !- Minimum Loop Flow Rate {m3/s}
  Autocalculate,                          !- Plant Loop Volume {m3}
  {cfe11484-b62e-40ce-9164-6b262aefafa5}, !- Plant Side Inlet Node Name
  {8cb2c0a4-d919-49da-8b82-bfc80f3dd24d}, !- Plant Side Outlet Node Name
  ,                                       !- Plant Side Branch List Name
  {003e06cf-2fb3-4cc9-84fb-1cf4198f1ac8}, !- Demand Side Inlet Node Name
  {7329f503-afff-4ed9-94ac-1f19ff96a201}, !- Demand Side Outlet Node Name
  ,                                       !- Demand Side Branch List Name
  ,                                       !- Demand Side Connector List Name
  Optimal,                                !- Load Distribution Scheme
  {adde335f-72e6-452b-8249-7e5078a78566}, !- Availability Manager List Name
  ,                                       !- Plant Loop Demand Calculation Scheme
  ,                                       !- Common Pipe Simulation
  ,                                       !- Pressure Simulation Type
  ,                                       !- Plant Equipment Operation Heating Load Schedule
  ,                                       !- Plant Equipment Operation Cooling Load Schedule
  ,                                       !- Primary Plant Equipment Operation Scheme Schedule
  ,                                       !- Component Setpoint Operation Scheme Schedule
  {2a3178fe-a843-438f-94e4-70bf00aa7f5a}, !- Demand Mixer Name
  {00bc2a19-4b37-4f1d-b2ac-ecc6d977515f}, !- Demand Splitter Name
  {55ed4fdf-0c66-426c-809d-e8bea87d009f}, !- Supply Mixer Name
  {76d02730-b042-40d6-ac86-f8df09a08445}; !- Supply Splitter Name

OS:Sizing:Plant,
  {a723b975-726c-4686-adcb-6ad48eee3c6b}, !- Handle
  {d0b5b7f1-0175-453a-89ef-0e592a269064}, !- Plant or Condenser Loop Name
  Heating,                                !- Loop Type
  82,                                     !- Design Loop Exit Temperature {C}
  11,                                     !- Loop Design Temperature Difference {deltaC}
  NonCoincident,                          !- Sizing Option
  1,                                      !- Zone Timesteps in Averaging Window
  None;                                   !- Coincident Sizing Factor Mode

OS:Node,
  {cb75414f-be2a-4a27-a4bb-455d7d265049}, !- Handle
  Node 1,                                 !- Name
  {cfe11484-b62e-40ce-9164-6b262aefafa5}, !- Inlet Port
  {8882db43-76d4-4be9-a7ed-ee64f1e32140}; !- Outlet Port

OS:Node,
  {de24f4dc-4f3a-4168-bde4-e851ea08a9f3}, !- Handle
  Node 2,                                 !- Name
  {9f69ba77-e723-4ace-bda6-e21859c8b64f}, !- Inlet Port
  {8cb2c0a4-d919-49da-8b82-bfc80f3dd24d}; !- Outlet Port

OS:Node,
  {b56a525c-2110-43f6-8b94-9ff38a51c73c}, !- Handle
  Node 3,                                 !- Name
  {479d3fd8-9773-4a44-b5fd-6f484f45864a}, !- Inlet Port
  {51db0df7-45fc-426f-ab52-85b59650e88b}; !- Outlet Port

OS:Connector:Mixer,
  {55ed4fdf-0c66-426c-809d-e8bea87d009f}, !- Handle
  Connector Mixer 1,                      !- Name
  {9f69ba77-e723-4ace-bda6-e21859c8b64f}, !- Outlet Branch Name
  {51db0df7-45fc-426f-ab52-85b59650e88b}; !- Inlet Branch Name 1

OS:Connector:Splitter,
  {76d02730-b042-40d6-ac86-f8df09a08445}, !- Handle
  Connector Splitter 1,                   !- Name
  {8882db43-76d4-4be9-a7ed-ee64f1e32140}, !- Inlet Branch Name
  {479d3fd8-9773-4a44-b5fd-6f484f45864a}; !- Outlet Branch Name 1

OS:Connection,
  {cfe11484-b62e-40ce-9164-6b262aefafa5}, !- Handle
  {fb241ae4-5eaf-4582-a61a-8a46ca2918e3}, !- Name
  {d0b5b7f1-0175-453a-89ef-0e592a269064}, !- Source Object
  14,                                     !- Outlet Port
  {cb75414f-be2a-4a27-a4bb-455d7d265049}, !- Target Object
  2;                                      !- Inlet Port

OS:Connection,
  {8882db43-76d4-4be9-a7ed-ee64f1e32140}, !- Handle
  {5a22904a-1c0f-44a9-8516-17d6c037952f}, !- Name
  {cb75414f-be2a-4a27-a4bb-455d7d265049}, !- Source Object
  3,                                      !- Outlet Port
  {76d02730-b042-40d6-ac86-f8df09a08445}, !- Target Object
  2;                                      !- Inlet Port

OS:Connection,
  {479d3fd8-9773-4a44-b5fd-6f484f45864a}, !- Handle
  {0c7f5ef4-0e31-4c2c-861f-c21c1cc8cce6}, !- Name
  {76d02730-b042-40d6-ac86-f8df09a08445}, !- Source Object
  3,                                      !- Outlet Port
  {b56a525c-2110-43f6-8b94-9ff38a51c73c}, !- Target Object
  2;                                      !- Inlet Port

OS:Connection,
  {51db0df7-45fc-426f-ab52-85b59650e88b}, !- Handle
  {4afe48db-b065-495f-ab43-58bd1a1505ae}, !- Name
  {b56a525c-2110-43f6-8b94-9ff38a51c73c}, !- Source Object
  3,                                      !- Outlet Port
  {55ed4fdf-0c66-426c-809d-e8bea87d009f}, !- Target Object
  3;                                      !- Inlet Port

OS:Connection,
  {9f69ba77-e723-4ace-bda6-e21859c8b64f}, !- Handle
  {56e3fe1d-6079-4355-8d40-db69308f2c12}, !- Name
  {55ed4fdf-0c66-426c-809d-e8bea87d009f}, !- Source Object
  2,                                      !- Outlet Port
  {de24f4dc-4f3a-4168-bde4-e851ea08a9f3}, !- Target Object
  2;                                      !- Inlet Port

OS:Connection,
  {8cb2c0a4-d919-49da-8b82-bfc80f3dd24d}, !- Handle
  {a76370f6-cd3a-4141-a18a-504d2fc9303a}, !- Name
  {de24f4dc-4f3a-4168-bde4-e851ea08a9f3}, !- Source Object
  3,                                      !- Outlet Port
  {d0b5b7f1-0175-453a-89ef-0e592a269064}, !- Target Object
  15;                                     !- Inlet Port

OS:Node,
  {ec36b4ee-122f-4c2e-9761-46be4ac0ee64}, !- Handle
  Node 4,                                 !- Name
  {003e06cf-2fb3-4cc9-84fb-1cf4198f1ac8}, !- Inlet Port
  {57d4a1b0-1cdb-4b9f-a7bd-e620ce85e5a7}; !- Outlet Port

OS:Node,
  {6ad905be-282e-40d6-872c-0c81f82dd2f3}, !- Handle
  Node 5,                                 !- Name
  {e557bc94-3e8c-42d1-a430-a4639f9b6acb}, !- Inlet Port
  {7329f503-afff-4ed9-94ac-1f19ff96a201}; !- Outlet Port

OS:Node,
  {eecc123a-48f0-452a-b383-493833e00363}, !- Handle
  Node 6,                                 !- Name
  {122fa7cb-df76-4357-9237-37f3c4cdfa98}, !- Inlet Port
  {3d878cf4-9057-4553-8459-eab205610175}; !- Outlet Port

OS:Connector:Mixer,
  {2a3178fe-a843-438f-94e4-70bf00aa7f5a}, !- Handle
  Connector Mixer 2,                      !- Name
  {e557bc94-3e8c-42d1-a430-a4639f9b6acb}, !- Outlet Branch Name
  {3d878cf4-9057-4553-8459-eab205610175}; !- Inlet Branch Name 1

OS:Connector:Splitter,
  {00bc2a19-4b37-4f1d-b2ac-ecc6d977515f}, !- Handle
  Connector Splitter 2,                   !- Name
  {57d4a1b0-1cdb-4b9f-a7bd-e620ce85e5a7}, !- Inlet Branch Name
  {122fa7cb-df76-4357-9237-37f3c4cdfa98}; !- Outlet Branch Name 1

OS:Connection,
  {003e06cf-2fb3-4cc9-84fb-1cf4198f1ac8}, !- Handle
  {268fbad1-a5b3-4077-8d30-ced87469a502}, !- Name
  {d0b5b7f1-0175-453a-89ef-0e592a269064}, !- Source Object
  17,                                     !- Outlet Port
  {ec36b4ee-122f-4c2e-9761-46be4ac0ee64}, !- Target Object
  2;                                      !- Inlet Port

OS:Connection,
  {57d4a1b0-1cdb-4b9f-a7bd-e620ce85e5a7}, !- Handle
  {25fd3dfd-32d5-4b4b-80c1-7faaefe3ea61}, !- Name
  {ec36b4ee-122f-4c2e-9761-46be4ac0ee64}, !- Source Object
  3,                                      !- Outlet Port
  {00bc2a19-4b37-4f1d-b2ac-ecc6d977515f}, !- Target Object
  2;                                      !- Inlet Port

OS:Connection,
  {122fa7cb-df76-4357-9237-37f3c4cdfa98}, !- Handle
  {1424887d-c771-491a-bbec-5ae32ffed478}, !- Name
  {00bc2a19-4b37-4f1d-b2ac-ecc6d977515f}, !- Source Object
  3,                                      !- Outlet Port
  {eecc123a-48f0-452a-b383-493833e00363}, !- Target Object
  2;                                      !- Inlet Port

OS:Connection,
  {3d878cf4-9057-4553-8459-eab205610175}, !- Handle
  {d58180a8-cf6a-436a-a5bf-7aa2a29aaf82}, !- Name
  {eecc123a-48f0-452a-b383-493833e00363}, !- Source Object
  3,                                      !- Outlet Port
  {2a3178fe-a843-438f-94e4-70bf00aa7f5a}, !- Target Object
  3;                                      !- Inlet Port

OS:Connection,
  {e557bc94-3e8c-42d1-a430-a4639f9b6acb}, !- Handle
  {858a6322-fd06-4366-a588-22f7525a210e}, !- Name
  {2a3178fe-a843-438f-94e4-70bf00aa7f5a}, !- Source Object
  2,                                      !- Outlet Port
  {6ad905be-282e-40d6-872c-0c81f82dd2f3}, !- Target Object
  2;                                      !- Inlet Port

OS:Connection,
  {7329f503-afff-4ed9-94ac-1f19ff96a201}, !- Handle
  {2c9a50e9-00b5-44d7-9ba6-f726c7863b77}, !- Name
  {6ad905be-282e-40d6-872c-0c81f82dd2f3}, !- Source Object
  3,                                      !- Outlet Port
  {d0b5b7f1-0175-453a-89ef-0e592a269064}, !- Target Object
  18;                                     !- Inlet Port

OS:AvailabilityManagerAssignmentList,
  {adde335f-72e6-452b-8249-7e5078a78566}, !- Handle
  Plant Loop 1 AvailabilityManagerAssignmentList; !- Name

! TrackingID:#[ApXb2G]
OS:Sizing:Plant,
  {f62dcb51-b7e7-4406-81c7-c17698b7bb11}, !- Handle
  {d0b5b7f1-0175-453a-89ef-0e592a269064}, !- Plant or Condenser Loop Name
  Cooling,                                !- Loop Type
  82,                                     !- Design Loop Exit Temperature {C}
  11,                                     !- Loop Design Temperature Difference {deltaC}
  NonCoincident,                          !- Sizing Option
  1,                                      !- Zone Timesteps in Averaging Window
  None;                                   !- Coincident Sizing Factor Mode

