
OS:Version,
  {92ccbbb2-6d80-4109-8113-2c2bd359a6ca}, !- Handle
  2.4.0;                                  !- Version Identifier

! TrackingID:#[fRx9aD]
OS:AirLoopHVAC,
  {bf43864a-150c-430b-98bf-2b42768eadbc}, !- Handle
  Air Loop HVAC 1,                        !- Name
  ,                                       !- Controller List Name
  {aa7e276e-3ec6-441a-8414-d767abd0edc5}, !- Availability Schedule
  {964a56e0-ec10-468f-91bd-f2d7574fa1d3}, !- Availability Manager List Name
  AutoSize,                               !- Design Supply Air Flow Rate {m3/s}
  ,                                       !- Branch List Name
  ,                                       !- Connector List Name
  {c3c02ce7-e004-4436-b072-88f501a905c0}, !- Supply Side Inlet Node Name
  {8589835a-51d1-4a56-8901-d0252f255d24}, !- Demand Side Outlet Node Name
  {c985e07e-ba2f-4dc9-8bb7-573dc8e2dfeb}, !- Demand Side Inlet Node A
  {6e5729fe-2608-4541-8f73-8ba1fb1322f8}, !- Supply Side Outlet Node A
  ,                                       !- Demand Side Inlet Node B
  ,                                       !- Supply Side Outlet Node B
  ,                                       !- Return Air Bypass Flow Temperature Setpoint Schedule Name
  {6496acf9-7323-4811-a7ea-4ce03a4baca1}, !- Demand Mixer Name
  {37093bc9-3b03-41e6-b31e-d83281d5f6b7}, !- Demand Splitter A Name
  ,                                       !- Demand Splitter B Name
  ;                                       !- Supply Splitter Name

OS:Node,
  {067cfa09-e16f-4b6d-9b74-4c23b60921b1}, !- Handle
  Node 1,                                 !- Name
  {c3c02ce7-e004-4436-b072-88f501a905c0}, !- Inlet Port
  {27259c21-f1ea-4c70-9664-2760384b1532}; !- Outlet Port

OS:Node,
  {fa5122b5-c2ca-43c0-a569-2a4705595efd}, !- Handle
  Node 2,                                 !- Name
  {b7e97c67-597f-4356-b890-1eeb3d7ef936}, !- Inlet Port
  {6e5729fe-2608-4541-8f73-8ba1fb1322f8}; !- Outlet Port

OS:Connection,
  {c3c02ce7-e004-4436-b072-88f501a905c0}, !- Handle
  {474707ac-297d-42b6-b112-8d4389e4a41a}, !- Name
  {bf43864a-150c-430b-98bf-2b42768eadbc}, !- Source Object
  8,                                      !- Outlet Port
  {067cfa09-e16f-4b6d-9b74-4c23b60921b1}, !- Target Object
  2;                                      !- Inlet Port

OS:Connection,
  {6e5729fe-2608-4541-8f73-8ba1fb1322f8}, !- Handle
  {c552a8e0-1bba-4be8-9439-1d866a79995f}, !- Name
  {fa5122b5-c2ca-43c0-a569-2a4705595efd}, !- Source Object
  3,                                      !- Outlet Port
  {bf43864a-150c-430b-98bf-2b42768eadbc}, !- Target Object
  11;                                     !- Inlet Port

OS:Node,
  {624e1e60-8a85-420f-bed7-50692499f94b}, !- Handle
  Node 3,                                 !- Name
  {c985e07e-ba2f-4dc9-8bb7-573dc8e2dfeb}, !- Inlet Port
  {97349d66-54d0-44d4-be28-2a9e22e7d6f6}; !- Outlet Port

OS:Node,
  {6a441200-9711-45e5-a841-db8ed7921b49}, !- Handle
  Node 4,                                 !- Name
  {3db1bcca-6918-48cc-9063-a24ae9862b82}, !- Inlet Port
  {8589835a-51d1-4a56-8901-d0252f255d24}; !- Outlet Port

OS:Node,
  {459a79fa-ad05-42e2-b425-308ba7086b0d}, !- Handle
  Node 5,                                 !- Name
  {a8e34236-81ec-40de-8f04-c87fde829494}, !- Inlet Port
  {147faacc-4dbc-4a63-b4f6-94c0192c2d33}; !- Outlet Port

OS:Connection,
  {c985e07e-ba2f-4dc9-8bb7-573dc8e2dfeb}, !- Handle
  {75a82945-bde2-4d32-892b-4f37d586f986}, !- Name
  {bf43864a-150c-430b-98bf-2b42768eadbc}, !- Source Object
  10,                                     !- Outlet Port
  {624e1e60-8a85-420f-bed7-50692499f94b}, !- Target Object
  2;                                      !- Inlet Port

OS:Connection,
  {8589835a-51d1-4a56-8901-d0252f255d24}, !- Handle
  {5b539974-4bb9-48ac-aaab-7b35d245faea}, !- Name
  {6a441200-9711-45e5-a841-db8ed7921b49}, !- Source Object
  3,                                      !- Outlet Port
  {bf43864a-150c-430b-98bf-2b42768eadbc}, !- Target Object
  9;                                      !- Inlet Port

OS:AirLoopHVAC:ZoneSplitter,
  {37093bc9-3b03-41e6-b31e-d83281d5f6b7}, !- Handle
  Air Loop HVAC Zone Splitter 1,          !- Name
  {97349d66-54d0-44d4-be28-2a9e22e7d6f6}, !- Inlet Node Name
  {a8e34236-81ec-40de-8f04-c87fde829494}; !- Outlet Node Name 1

OS:AirLoopHVAC:ZoneMixer,
  {6496acf9-7323-4811-a7ea-4ce03a4baca1}, !- Handle
  Air Loop HVAC Zone Mixer 1,             !- Name
  {3db1bcca-6918-48cc-9063-a24ae9862b82}, !- Outlet Node Name
  {147faacc-4dbc-4a63-b4f6-94c0192c2d33}; !- Inlet Node Name 1

OS:Connection,
  {97349d66-54d0-44d4-be28-2a9e22e7d6f6}, !- Handle
  {47bbfa5c-aca9-4595-8c2d-def5b59f5013}, !- Name
  {624e1e60-8a85-420f-bed7-50692499f94b}, !- Source Object
  3,                                      !- Outlet Port
  {37093bc9-3b03-41e6-b31e-d83281d5f6b7}, !- Target Object
  2;                                      !- Inlet Port

OS:Connection,
  {a8e34236-81ec-40de-8f04-c87fde829494}, !- Handle
  {0948c557-87b9-4867-bc24-5e16667c6123}, !- Name
  {37093bc9-3b03-41e6-b31e-d83281d5f6b7}, !- Source Object
  3,                                      !- Outlet Port
  {459a79fa-ad05-42e2-b425-308ba7086b0d}, !- Target Object
  2;                                      !- Inlet Port

OS:Connection,
  {147faacc-4dbc-4a63-b4f6-94c0192c2d33}, !- Handle
  {341d351b-0027-469f-b99d-1dd169fd1d42}, !- Name
  {459a79fa-ad05-42e2-b425-308ba7086b0d}, !- Source Object
  3,                                      !- Outlet Port
  {6496acf9-7323-4811-a7ea-4ce03a4baca1}, !- Target Object
  3;                                      !- Inlet Port

OS:Connection,
  {3db1bcca-6918-48cc-9063-a24ae9862b82}, !- Handle
  {624355cb-e187-4bc8-8035-c3930a8e2da2}, !- Name
  {6496acf9-7323-4811-a7ea-4ce03a4baca1}, !- Source Object
  2,                                      !- Outlet Port
  {6a441200-9711-45e5-a841-db8ed7921b49}, !- Target Object
  2;                                      !- Inlet Port

OS:Sizing:System,
  {848e8f71-1879-4318-8fec-b0e578b573f0}, !- Handle
  {bf43864a-150c-430b-98bf-2b42768eadbc}, !- AirLoop Name
  Sensible,                               !- Type of Load to Size On
  Autosize,                               !- Design Outdoor Air Flow Rate {m3/s}
  0.3,                                    !- Minimum System Air Flow Ratio
  7,                                      !- Preheat Design Temperature {C}
  0.008,                                  !- Preheat Design Humidity Ratio {kg-H2O/kg-Air}
  12.8,                                   !- Precool Design Temperature {C}
  0.008,                                  !- Precool Design Humidity Ratio {kg-H2O/kg-Air}
  12.8,                                   !- Central Cooling Design Supply Air Temperature {C}
  16.7,                                   !- Central Heating Design Supply Air Temperature {C}
  NonCoincident,                          !- Sizing Option
  Yes,                                    !- 100% Outdoor Air in Cooling
  Yes,                                    !- 100% Outdoor Air in Heating
  0.0085,                                 !- Central Cooling Design Supply Air Humidity Ratio {kg-H2O/kg-Air}
  0.008,                                  !- Central Heating Design Supply Air Humidity Ratio {kg-H2O/kg-Air}
  DesignDay,                              !- Cooling Design Air Flow Method
  0,                                      !- Cooling Design Air Flow Rate {m3/s}
  DesignDay,                              !- Heating Design Air Flow Method
  0,                                      !- Heating Design Air Flow Rate {m3/s}
  ZoneSum,                                !- System Outdoor Air Method
  1,                                      !- Zone Maximum Outdoor Air Fraction {dimensionless}
  0.0099676501,                           !- Cooling Supply Air Flow Rate Per Floor Area {m3/s-m2}
  1,                                      !- Cooling Fraction of Autosized Cooling Supply Air Flow Rate
  3.9475456e-005,                         !- Cooling Supply Air Flow Rate Per Unit Cooling Capacity {m3/s-W}
  0.0099676501,                           !- Heating Supply Air Flow Rate Per Floor Area {m3/s-m2}
  1,                                      !- Heating Fraction of Autosized Heating Supply Air Flow Rate
  1,                                      !- Heating Fraction of Autosized Cooling Supply Air Flow Rate
  3.1588213e-005,                         !- Heating Supply Air Flow Rate Per Unit Heating Capacity {m3/s-W}
  CoolingDesignCapacity,                  !- Cooling Design Capacity Method
  autosize,                               !- Cooling Design Capacity {W}
  234.7,                                  !- Cooling Design Capacity Per Floor Area {W/m2}
  1,                                      !- Fraction of Autosized Cooling Design Capacity
  HeatingDesignCapacity,                  !- Heating Design Capacity Method
  autosize,                               !- Heating Design Capacity {W}
  157,                                    !- Heating Design Capacity Per Floor Area {W/m2}
  1,                                      !- Fraction of Autosized Heating Design Capacity
  OnOff;                                  !- Central Cooling Capacity Control Method

OS:Schedule:Constant,
  {aa7e276e-3ec6-441a-8414-d767abd0edc5}, !- Handle
  Always On Discrete,                     !- Name
  {1de025b2-dec1-49e5-93c7-ccb3703f5148}, !- Schedule Type Limits Name
  1;                                      !- Value

OS:ScheduleTypeLimits,
  {1de025b2-dec1-49e5-93c7-ccb3703f5148}, !- Handle
  OnOff,                                  !- Name
  0,                                      !- Lower Limit Value
  1,                                      !- Upper Limit Value
  Discrete,                               !- Numeric Type
  Availability;                           !- Unit Type

OS:AvailabilityManagerAssignmentList,
  {964a56e0-ec10-468f-91bd-f2d7574fa1d3}, !- Handle
  Air Loop HVAC 1 AvailabilityManagerAssignmentList; !- Name

! TrackingID:#[udlvfR]
OS:Coil:Heating:Water,
  {71b9fbac-e63c-4a88-a755-c15c475761db}, !- Handle
  Coil Heating Water 1,                   !- Name
  {aa7e276e-3ec6-441a-8414-d767abd0edc5}, !- Availability Schedule Name
  ,                                       !- U-Factor Times Area Value {W/K}
  ,                                       !- Maximum Water Flow Rate {m3/s}
  ,                                       !- Water Inlet Node Name
  ,                                       !- Water Outlet Node Name
  {27259c21-f1ea-4c70-9664-2760384b1532}, !- Air Inlet Node Name
  {4e726c03-f09f-4090-b12b-71b3450f54f4}, !- Air Outlet Node Name
  ,                                       !- Performance Input Method
  ,                                       !- Rated Capacity {W}
  ,                                       !- Rated Inlet Water Temperature {C}
  ,                                       !- Rated Inlet Air Temperature {C}
  ,                                       !- Rated Outlet Water Temperature {C}
  ,                                       !- Rated Outlet Air Temperature {C}
  ;                                       !- Rated Ratio for Air and Water Convection

OS:Connection,
  {27259c21-f1ea-4c70-9664-2760384b1532}, !- Handle
  {24ea0178-b35a-412c-9b81-ec0acc8cef9a}, !- Name
  {067cfa09-e16f-4b6d-9b74-4c23b60921b1}, !- Source Object
  3,                                      !- Outlet Port
  {71b9fbac-e63c-4a88-a755-c15c475761db}, !- Target Object
  7;                                      !- Inlet Port

! TrackingID:#[lXCu8s]
OS:Fan:ConstantVolume,
  {6925bad3-03e8-4e66-bf71-8fd2a74fe240}, !- Handle
  Fan Constant Volume 1,                  !- Name
  {aa7e276e-3ec6-441a-8414-d767abd0edc5}, !- Availability Schedule Name
  ,                                       !- Fan Efficiency
  ,                                       !- Pressure Rise {Pa}
  AutoSize,                               !- Maximum Flow Rate {m3/s}
  ,                                       !- Motor Efficiency
  ,                                       !- Motor In Airstream Fraction
  {6289ef5d-a7f5-4ae8-974b-1ac165155f1d}, !- Air Inlet Node Name
  {b7e97c67-597f-4356-b890-1eeb3d7ef936}, !- Air Outlet Node Name
  ;                                       !- End-Use Subcategory

OS:Node,
  {ee651bf9-78d7-4ecb-9e2d-6d939773aeb1}, !- Handle
  Node 6,                                 !- Name
  {4e726c03-f09f-4090-b12b-71b3450f54f4}, !- Inlet Port
  {6289ef5d-a7f5-4ae8-974b-1ac165155f1d}; !- Outlet Port

OS:Connection,
  {4e726c03-f09f-4090-b12b-71b3450f54f4}, !- Handle
  {a2b7b241-3b1e-4c22-8793-da1c684a85bd}, !- Name
  {71b9fbac-e63c-4a88-a755-c15c475761db}, !- Source Object
  8,                                      !- Outlet Port
  {ee651bf9-78d7-4ecb-9e2d-6d939773aeb1}, !- Target Object
  2;                                      !- Inlet Port

OS:Connection,
  {6289ef5d-a7f5-4ae8-974b-1ac165155f1d}, !- Handle
  {916b87db-9bbb-4fbb-84d8-9b55292b9ce7}, !- Name
  {ee651bf9-78d7-4ecb-9e2d-6d939773aeb1}, !- Source Object
  3,                                      !- Outlet Port
  {6925bad3-03e8-4e66-bf71-8fd2a74fe240}, !- Target Object
  8;                                      !- Inlet Port

OS:Connection,
  {b7e97c67-597f-4356-b890-1eeb3d7ef936}, !- Handle
  {563b7866-04e5-42e5-8eab-6ada02c26291}, !- Name
  {6925bad3-03e8-4e66-bf71-8fd2a74fe240}, !- Source Object
  9,                                      !- Outlet Port
  {fa5122b5-c2ca-43c0-a569-2a4705595efd}, !- Target Object
  2;                                      !- Inlet Port

! TrackingID:#[oXCaBz]
OS:SetpointManager:OutdoorAirReset,
  {99740551-f914-4557-be92-b56d79067dff}, !- Handle
  Setpoint Manager Outdoor Air Reset 1,   !- Name
  Temperature,                            !- Control Variable
  22,                                     !- Setpoint at Outdoor Low Temperature {C}
  10,                                     !- Outdoor Low Temperature {C}
  10,                                     !- Setpoint at Outdoor High Temperature {C}
  24,                                     !- Outdoor High Temperature {C}
  {067cfa09-e16f-4b6d-9b74-4c23b60921b1}, !- Setpoint Node or NodeList Name
  ,                                       !- Schedule Name
  ,                                       !- Setpoint at Outdoor Low Temperature 2 {C}
  ,                                       !- Outdoor Low Temperature 2 {C}
  ,                                       !- Setpoint at Outdoor High Temperature 2 {C}
  ;                                       !- Outdoor High Temperature 2 {C}

