
OS:Version,
  {90f7522f-04ef-40f0-b3f8-7e570d32b2cb}, !- Handle
  2.4.0;                                  !- Version Identifier

OS:AirLoopHVAC,
  {4ee84b1b-99e0-425b-8d85-e10d8d978cd6}, !- Handle
  Air Loop HVAC 1,                        !- Name
  ,                                       !- Controller List Name
  {4e3dc07e-c53c-4181-90e6-26b2040c08ce}, !- Availability Schedule
  {8c88a036-0f05-462e-893b-47dd3f6aa7aa}, !- Availability Manager List Name
  AutoSize,                               !- Design Supply Air Flow Rate {m3/s}
  ,                                       !- Branch List Name
  ,                                       !- Connector List Name
  {d3b33104-005c-413d-9a04-221e995affc8}, !- Supply Side Inlet Node Name
  {c9cb1c44-595f-48ff-b419-3629689b5978}, !- Demand Side Outlet Node Name
  {04aec7a4-063c-468c-a008-02683f19bce6}, !- Demand Side Inlet Node A
  {1102389b-cf44-4004-bb13-34167b6dbd4e}, !- Supply Side Outlet Node A
  ,                                       !- Demand Side Inlet Node B
  ,                                       !- Supply Side Outlet Node B
  ,                                       !- Return Air Bypass Flow Temperature Setpoint Schedule Name
  {3f55f02b-70ab-472c-a3aa-d13b1f9c8cfc}, !- Demand Mixer Name
  {3b9a368f-236f-44a6-a630-16de89c6f71f}, !- Demand Splitter A Name
  ,                                       !- Demand Splitter B Name
  ;                                       !- Supply Splitter Name

OS:Node,
  {0027d546-72e9-4c19-b317-45b1b96fa66d}, !- Handle
  Node 1,                                 !- Name
  {d3b33104-005c-413d-9a04-221e995affc8}, !- Inlet Port
  {894d50b9-a08c-4933-a2ce-fa57fa9cba2e}; !- Outlet Port

OS:Node,
  {f42c5892-634e-46c3-a34f-cbcea6e38db2}, !- Handle
  Node 2,                                 !- Name
  {b61091af-da71-4905-8284-7a30c30ebc60}, !- Inlet Port
  {1102389b-cf44-4004-bb13-34167b6dbd4e}; !- Outlet Port

OS:Connection,
  {d3b33104-005c-413d-9a04-221e995affc8}, !- Handle
  {149c68b3-9184-494f-bc03-72708187bd76}, !- Name
  {4ee84b1b-99e0-425b-8d85-e10d8d978cd6}, !- Source Object
  8,                                      !- Outlet Port
  {0027d546-72e9-4c19-b317-45b1b96fa66d}, !- Target Object
  2;                                      !- Inlet Port

OS:Connection,
  {1102389b-cf44-4004-bb13-34167b6dbd4e}, !- Handle
  {6687889a-3220-43ec-8038-ca9462968895}, !- Name
  {f42c5892-634e-46c3-a34f-cbcea6e38db2}, !- Source Object
  3,                                      !- Outlet Port
  {4ee84b1b-99e0-425b-8d85-e10d8d978cd6}, !- Target Object
  11;                                     !- Inlet Port

OS:Node,
  {8a690d90-2163-497c-80ce-f217ce6ace1b}, !- Handle
  Node 3,                                 !- Name
  {04aec7a4-063c-468c-a008-02683f19bce6}, !- Inlet Port
  {81f187c4-2c01-41cc-b1c5-85a3eef8d290}; !- Outlet Port

OS:Node,
  {0a663f86-7605-4333-9552-0b767b49eb6b}, !- Handle
  Node 4,                                 !- Name
  {a1e201e9-041c-4405-9818-7cd9fe5b0e28}, !- Inlet Port
  {c9cb1c44-595f-48ff-b419-3629689b5978}; !- Outlet Port

OS:Node,
  {0e0ea606-f70d-4e24-ab7f-7fe2e78da87c}, !- Handle
  Node 5,                                 !- Name
  {1fa64291-5e2b-4055-b3b9-3783c1289594}, !- Inlet Port
  {2004e283-30df-4747-a73a-bff44d25700c}; !- Outlet Port

OS:Connection,
  {04aec7a4-063c-468c-a008-02683f19bce6}, !- Handle
  {e0e9792d-6882-44ad-b4f9-24ae4505ec25}, !- Name
  {4ee84b1b-99e0-425b-8d85-e10d8d978cd6}, !- Source Object
  10,                                     !- Outlet Port
  {8a690d90-2163-497c-80ce-f217ce6ace1b}, !- Target Object
  2;                                      !- Inlet Port

OS:Connection,
  {c9cb1c44-595f-48ff-b419-3629689b5978}, !- Handle
  {0aa6680b-26d1-4f02-b24b-e68f5257b7ea}, !- Name
  {0a663f86-7605-4333-9552-0b767b49eb6b}, !- Source Object
  3,                                      !- Outlet Port
  {4ee84b1b-99e0-425b-8d85-e10d8d978cd6}, !- Target Object
  9;                                      !- Inlet Port

OS:AirLoopHVAC:ZoneSplitter,
  {3b9a368f-236f-44a6-a630-16de89c6f71f}, !- Handle
  Air Loop HVAC Zone Splitter 1,          !- Name
  {81f187c4-2c01-41cc-b1c5-85a3eef8d290}, !- Inlet Node Name
  {1fa64291-5e2b-4055-b3b9-3783c1289594}; !- Outlet Node Name 1

OS:AirLoopHVAC:ZoneMixer,
  {3f55f02b-70ab-472c-a3aa-d13b1f9c8cfc}, !- Handle
  Air Loop HVAC Zone Mixer 1,             !- Name
  {a1e201e9-041c-4405-9818-7cd9fe5b0e28}, !- Outlet Node Name
  {2004e283-30df-4747-a73a-bff44d25700c}; !- Inlet Node Name 1

OS:Connection,
  {81f187c4-2c01-41cc-b1c5-85a3eef8d290}, !- Handle
  {b115c1e6-24d2-47b4-8762-7aafe1bdae85}, !- Name
  {8a690d90-2163-497c-80ce-f217ce6ace1b}, !- Source Object
  3,                                      !- Outlet Port
  {3b9a368f-236f-44a6-a630-16de89c6f71f}, !- Target Object
  2;                                      !- Inlet Port

OS:Connection,
  {1fa64291-5e2b-4055-b3b9-3783c1289594}, !- Handle
  {acf0983c-46d6-4cbb-a57e-03da24d36e9a}, !- Name
  {3b9a368f-236f-44a6-a630-16de89c6f71f}, !- Source Object
  3,                                      !- Outlet Port
  {0e0ea606-f70d-4e24-ab7f-7fe2e78da87c}, !- Target Object
  2;                                      !- Inlet Port

OS:Connection,
  {2004e283-30df-4747-a73a-bff44d25700c}, !- Handle
  {9e9b8c21-466d-4bb3-ad18-7fa05ef3b992}, !- Name
  {0e0ea606-f70d-4e24-ab7f-7fe2e78da87c}, !- Source Object
  3,                                      !- Outlet Port
  {3f55f02b-70ab-472c-a3aa-d13b1f9c8cfc}, !- Target Object
  3;                                      !- Inlet Port

OS:Connection,
  {a1e201e9-041c-4405-9818-7cd9fe5b0e28}, !- Handle
  {42e270b9-7926-4a41-83d6-64712031ee4a}, !- Name
  {3f55f02b-70ab-472c-a3aa-d13b1f9c8cfc}, !- Source Object
  2,                                      !- Outlet Port
  {0a663f86-7605-4333-9552-0b767b49eb6b}, !- Target Object
  2;                                      !- Inlet Port

OS:Sizing:System,
  {4b92fa9f-2649-4de0-9b11-57c82a283967}, !- Handle
  {4ee84b1b-99e0-425b-8d85-e10d8d978cd6}, !- AirLoop Name
  Sensible,                               !- Type of Load to Size On
  Autosize,                               !- Design Outdoor Air Flow Rate {m3/s}
  0.3,                                    !- Minimum System Air Flow Ratio
  7,                                      !- Preheat Design Temperature {C}
  0.008,                                  !- Preheat Design Humidity Ratio {kg-H2O/kg-Air}
  12.8,                                   !- Precool Design Temperature {C}
  0.008,                                  !- Precool Design Humidity Ratio {kg-H2O/kg-Air}
  12.8,                                   !- Central Cooling Design Supply Air Temperature {C}
  16.7,                                   !- Central Heating Design Supply Air Temperature {C}
  NonCoincident,                          !- Sizing Option
  Yes,                                    !- 100% Outdoor Air in Cooling
  Yes,                                    !- 100% Outdoor Air in Heating
  0.0085,                                 !- Central Cooling Design Supply Air Humidity Ratio {kg-H2O/kg-Air}
  0.008,                                  !- Central Heating Design Supply Air Humidity Ratio {kg-H2O/kg-Air}
  DesignDay,                              !- Cooling Design Air Flow Method
  0,                                      !- Cooling Design Air Flow Rate {m3/s}
  DesignDay,                              !- Heating Design Air Flow Method
  0,                                      !- Heating Design Air Flow Rate {m3/s}
  ZoneSum,                                !- System Outdoor Air Method
  1,                                      !- Zone Maximum Outdoor Air Fraction {dimensionless}
  0.0099676501,                           !- Cooling Supply Air Flow Rate Per Floor Area {m3/s-m2}
  1,                                      !- Cooling Fraction of Autosized Cooling Supply Air Flow Rate
  3.9475456e-005,                         !- Cooling Supply Air Flow Rate Per Unit Cooling Capacity {m3/s-W}
  0.0099676501,                           !- Heating Supply Air Flow Rate Per Floor Area {m3/s-m2}
  1,                                      !- Heating Fraction of Autosized Heating Supply Air Flow Rate
  1,                                      !- Heating Fraction of Autosized Cooling Supply Air Flow Rate
  3.1588213e-005,                         !- Heating Supply Air Flow Rate Per Unit Heating Capacity {m3/s-W}
  CoolingDesignCapacity,                  !- Cooling Design Capacity Method
  autosize,                               !- Cooling Design Capacity {W}
  234.7,                                  !- Cooling Design Capacity Per Floor Area {W/m2}
  1,                                      !- Fraction of Autosized Cooling Design Capacity
  HeatingDesignCapacity,                  !- Heating Design Capacity Method
  autosize,                               !- Heating Design Capacity {W}
  157,                                    !- Heating Design Capacity Per Floor Area {W/m2}
  1,                                      !- Fraction of Autosized Heating Design Capacity
  OnOff;                                  !- Central Cooling Capacity Control Method

OS:Schedule:Constant,
  {4e3dc07e-c53c-4181-90e6-26b2040c08ce}, !- Handle
  Always On Discrete,                     !- Name
  {c1b0f4c9-22a7-4cc5-933b-66b275cab380}, !- Schedule Type Limits Name
  1;                                      !- Value

OS:ScheduleTypeLimits,
  {c1b0f4c9-22a7-4cc5-933b-66b275cab380}, !- Handle
  OnOff,                                  !- Name
  0,                                      !- Lower Limit Value
  1,                                      !- Upper Limit Value
  Discrete,                               !- Numeric Type
  Availability;                           !- Unit Type

OS:AvailabilityManagerAssignmentList,
  {8c88a036-0f05-462e-893b-47dd3f6aa7aa}, !- Handle
  Air Loop HVAC 1 AvailabilityManagerAssignmentList; !- Name

OS:SetpointManager:OutdoorAirReset,
  {d6b2f65d-f5c0-4855-a254-e8743aceed41}, !- Handle
  Setpoint Manager Outdoor Air Reset 1,   !- Name
  Temperature,                            !- Control Variable
  22,                                     !- Setpoint at Outdoor Low Temperature {C}
  10,                                     !- Outdoor Low Temperature {C}
  10,                                     !- Setpoint at Outdoor High Temperature {C}
  24,                                     !- Outdoor High Temperature {C}
  {f42c5892-634e-46c3-a34f-cbcea6e38db2}, !- Setpoint Node or NodeList Name
  ,                                       !- Schedule Name
  ,                                       !- Setpoint at Outdoor Low Temperature 2 {C}
  ,                                       !- Outdoor Low Temperature 2 {C}
  ,                                       !- Setpoint at Outdoor High Temperature 2 {C}
  ;                                       !- Outdoor High Temperature 2 {C}

! TrackingID:#[AJkDIo]
OS:Coil:Heating:Water,
  {7920d2c1-9a69-476d-be75-b1ede0b6a38f}, !- Handle
  Coil Heating Water 1,                   !- Name
  {4e3dc07e-c53c-4181-90e6-26b2040c08ce}, !- Availability Schedule Name
  ,                                       !- U-Factor Times Area Value {W/K}
  ,                                       !- Maximum Water Flow Rate {m3/s}
  ,                                       !- Water Inlet Node Name
  ,                                       !- Water Outlet Node Name
  {894d50b9-a08c-4933-a2ce-fa57fa9cba2e}, !- Air Inlet Node Name
  {b61091af-da71-4905-8284-7a30c30ebc60}, !- Air Outlet Node Name
  ,                                       !- Performance Input Method
  ,                                       !- Rated Capacity {W}
  ,                                       !- Rated Inlet Water Temperature {C}
  ,                                       !- Rated Inlet Air Temperature {C}
  ,                                       !- Rated Outlet Water Temperature {C}
  ,                                       !- Rated Outlet Air Temperature {C}
  ;                                       !- Rated Ratio for Air and Water Convection

OS:Connection,
  {894d50b9-a08c-4933-a2ce-fa57fa9cba2e}, !- Handle
  {c74a1dd1-a650-4453-9d9c-adb84dd1df41}, !- Name
  {0027d546-72e9-4c19-b317-45b1b96fa66d}, !- Source Object
  3,                                      !- Outlet Port
  {7920d2c1-9a69-476d-be75-b1ede0b6a38f}, !- Target Object
  7;                                      !- Inlet Port

OS:Connection,
  {b61091af-da71-4905-8284-7a30c30ebc60}, !- Handle
  {7b2baa80-d9d7-4eef-b125-b0d72f34a72b}, !- Name
  {7920d2c1-9a69-476d-be75-b1ede0b6a38f}, !- Source Object
  8,                                      !- Outlet Port
  {f42c5892-634e-46c3-a34f-cbcea6e38db2}, !- Target Object
  2;                                      !- Inlet Port

