
OS:Version,
  {dfade56b-b531-4b75-81d1-478d83e9f751}, !- Handle
  2.4.0;                                  !- Version Identifier

! TrackingID:#[Rtc3Ip]
OS:AirLoopHVAC,
  {4067be2a-d323-48eb-a399-6d0fad3be386}, !- Handle
  Air Loop HVAC 1,                        !- Name
  ,                                       !- Controller List Name
  {e03cfba9-35cd-4c79-9f31-79fe68d02594}, !- Availability Schedule
  {0d88912c-1216-4e0c-bae0-50de38550920}, !- Availability Manager List Name
  AutoSize,                               !- Design Supply Air Flow Rate {m3/s}
  ,                                       !- Branch List Name
  ,                                       !- Connector List Name
  {3f357c3a-d85d-491a-bea7-b755f5410b7c}, !- Supply Side Inlet Node Name
  {a1ded5cb-8bf2-409d-9664-30bbadc2fc63}, !- Demand Side Outlet Node Name
  {c415dd93-8569-483e-97c3-a532d3a0f224}, !- Demand Side Inlet Node A
  {f107ae92-b943-4815-8894-a85a1fbb8989}, !- Supply Side Outlet Node A
  ,                                       !- Demand Side Inlet Node B
  ,                                       !- Supply Side Outlet Node B
  ,                                       !- Return Air Bypass Flow Temperature Setpoint Schedule Name
  {9319f192-04a3-4928-be01-79045f0ac711}, !- Demand Mixer Name
  {174f266f-84cd-41a8-91af-17a2b0b60a8c}, !- Demand Splitter A Name
  ,                                       !- Demand Splitter B Name
  ;                                       !- Supply Splitter Name

OS:Node,
  {5f6f8bc1-3a85-41f9-9a06-b4176c267efc}, !- Handle
  Node 1,                                 !- Name
  {3f357c3a-d85d-491a-bea7-b755f5410b7c}, !- Inlet Port
  {796cb1a0-1d5d-44b5-8c47-b3998be9be75}; !- Outlet Port

OS:Node,
  {66a26189-41df-4dca-aa9f-9f370564ddfb}, !- Handle
  Node 2,                                 !- Name
  {cd385e00-8854-4881-b7ac-c878ab233448}, !- Inlet Port
  {f107ae92-b943-4815-8894-a85a1fbb8989}; !- Outlet Port

OS:Connection,
  {3f357c3a-d85d-491a-bea7-b755f5410b7c}, !- Handle
  {140a882f-298f-4a4d-897a-f989932a7e5c}, !- Name
  {4067be2a-d323-48eb-a399-6d0fad3be386}, !- Source Object
  8,                                      !- Outlet Port
  {5f6f8bc1-3a85-41f9-9a06-b4176c267efc}, !- Target Object
  2;                                      !- Inlet Port

OS:Connection,
  {f107ae92-b943-4815-8894-a85a1fbb8989}, !- Handle
  {380f3e17-d109-4fbc-8d3a-3220f702145b}, !- Name
  {66a26189-41df-4dca-aa9f-9f370564ddfb}, !- Source Object
  3,                                      !- Outlet Port
  {4067be2a-d323-48eb-a399-6d0fad3be386}, !- Target Object
  11;                                     !- Inlet Port

OS:Node,
  {7f518f31-e7ae-48dd-b193-263c661d105e}, !- Handle
  Node 3,                                 !- Name
  {c415dd93-8569-483e-97c3-a532d3a0f224}, !- Inlet Port
  {c44ba76a-a515-4e39-b1ee-6e48dcfc2b1e}; !- Outlet Port

OS:Node,
  {1ca91e82-a451-47aa-b243-f9bf91463545}, !- Handle
  Node 4,                                 !- Name
  {db276382-854e-4f8e-9e09-1baf24952e3f}, !- Inlet Port
  {a1ded5cb-8bf2-409d-9664-30bbadc2fc63}; !- Outlet Port

OS:Node,
  {67ba9e24-b4e7-4eaa-9a41-9c20063cb254}, !- Handle
  Node 5,                                 !- Name
  {93248f77-f676-4f4b-8d00-e06b83377bfe}, !- Inlet Port
  {fc97df83-7f8f-4432-a168-2e10327d1566}; !- Outlet Port

OS:Connection,
  {c415dd93-8569-483e-97c3-a532d3a0f224}, !- Handle
  {aaaec978-ed4f-4629-8bfb-cc3dafb8f183}, !- Name
  {4067be2a-d323-48eb-a399-6d0fad3be386}, !- Source Object
  10,                                     !- Outlet Port
  {7f518f31-e7ae-48dd-b193-263c661d105e}, !- Target Object
  2;                                      !- Inlet Port

OS:Connection,
  {a1ded5cb-8bf2-409d-9664-30bbadc2fc63}, !- Handle
  {63ddccb5-44be-448e-9888-bbe421b3b514}, !- Name
  {1ca91e82-a451-47aa-b243-f9bf91463545}, !- Source Object
  3,                                      !- Outlet Port
  {4067be2a-d323-48eb-a399-6d0fad3be386}, !- Target Object
  9;                                      !- Inlet Port

OS:AirLoopHVAC:ZoneSplitter,
  {174f266f-84cd-41a8-91af-17a2b0b60a8c}, !- Handle
  Air Loop HVAC Zone Splitter 1,          !- Name
  {c44ba76a-a515-4e39-b1ee-6e48dcfc2b1e}, !- Inlet Node Name
  {93248f77-f676-4f4b-8d00-e06b83377bfe}; !- Outlet Node Name 1

OS:AirLoopHVAC:ZoneMixer,
  {9319f192-04a3-4928-be01-79045f0ac711}, !- Handle
  Air Loop HVAC Zone Mixer 1,             !- Name
  {db276382-854e-4f8e-9e09-1baf24952e3f}, !- Outlet Node Name
  {fc97df83-7f8f-4432-a168-2e10327d1566}; !- Inlet Node Name 1

OS:Connection,
  {c44ba76a-a515-4e39-b1ee-6e48dcfc2b1e}, !- Handle
  {ff3e2bdd-8a4d-44c3-b134-c9c5a800113b}, !- Name
  {7f518f31-e7ae-48dd-b193-263c661d105e}, !- Source Object
  3,                                      !- Outlet Port
  {174f266f-84cd-41a8-91af-17a2b0b60a8c}, !- Target Object
  2;                                      !- Inlet Port

OS:Connection,
  {93248f77-f676-4f4b-8d00-e06b83377bfe}, !- Handle
  {f86e43f1-e375-4295-9127-8fb7eb5a65df}, !- Name
  {174f266f-84cd-41a8-91af-17a2b0b60a8c}, !- Source Object
  3,                                      !- Outlet Port
  {67ba9e24-b4e7-4eaa-9a41-9c20063cb254}, !- Target Object
  2;                                      !- Inlet Port

OS:Connection,
  {fc97df83-7f8f-4432-a168-2e10327d1566}, !- Handle
  {d525242c-8756-4b20-991c-b6d5febeafbc}, !- Name
  {67ba9e24-b4e7-4eaa-9a41-9c20063cb254}, !- Source Object
  3,                                      !- Outlet Port
  {9319f192-04a3-4928-be01-79045f0ac711}, !- Target Object
  3;                                      !- Inlet Port

OS:Connection,
  {db276382-854e-4f8e-9e09-1baf24952e3f}, !- Handle
  {ab70747c-2b71-4273-80f1-b53dd415538c}, !- Name
  {9319f192-04a3-4928-be01-79045f0ac711}, !- Source Object
  2,                                      !- Outlet Port
  {1ca91e82-a451-47aa-b243-f9bf91463545}, !- Target Object
  2;                                      !- Inlet Port

OS:Sizing:System,
  {f089c53c-87d2-4cc3-927c-00838f2e4fdb}, !- Handle
  {4067be2a-d323-48eb-a399-6d0fad3be386}, !- AirLoop Name
  Sensible,                               !- Type of Load to Size On
  Autosize,                               !- Design Outdoor Air Flow Rate {m3/s}
  0.3,                                    !- Minimum System Air Flow Ratio
  7,                                      !- Preheat Design Temperature {C}
  0.008,                                  !- Preheat Design Humidity Ratio {kg-H2O/kg-Air}
  12.8,                                   !- Precool Design Temperature {C}
  0.008,                                  !- Precool Design Humidity Ratio {kg-H2O/kg-Air}
  12.8,                                   !- Central Cooling Design Supply Air Temperature {C}
  16.7,                                   !- Central Heating Design Supply Air Temperature {C}
  NonCoincident,                          !- Sizing Option
  Yes,                                    !- 100% Outdoor Air in Cooling
  Yes,                                    !- 100% Outdoor Air in Heating
  0.0085,                                 !- Central Cooling Design Supply Air Humidity Ratio {kg-H2O/kg-Air}
  0.008,                                  !- Central Heating Design Supply Air Humidity Ratio {kg-H2O/kg-Air}
  DesignDay,                              !- Cooling Design Air Flow Method
  0,                                      !- Cooling Design Air Flow Rate {m3/s}
  DesignDay,                              !- Heating Design Air Flow Method
  0,                                      !- Heating Design Air Flow Rate {m3/s}
  ZoneSum,                                !- System Outdoor Air Method
  1,                                      !- Zone Maximum Outdoor Air Fraction {dimensionless}
  0.0099676501,                           !- Cooling Supply Air Flow Rate Per Floor Area {m3/s-m2}
  1,                                      !- Cooling Fraction of Autosized Cooling Supply Air Flow Rate
  3.9475456e-005,                         !- Cooling Supply Air Flow Rate Per Unit Cooling Capacity {m3/s-W}
  0.0099676501,                           !- Heating Supply Air Flow Rate Per Floor Area {m3/s-m2}
  1,                                      !- Heating Fraction of Autosized Heating Supply Air Flow Rate
  1,                                      !- Heating Fraction of Autosized Cooling Supply Air Flow Rate
  3.1588213e-005,                         !- Heating Supply Air Flow Rate Per Unit Heating Capacity {m3/s-W}
  CoolingDesignCapacity,                  !- Cooling Design Capacity Method
  autosize,                               !- Cooling Design Capacity {W}
  234.7,                                  !- Cooling Design Capacity Per Floor Area {W/m2}
  1,                                      !- Fraction of Autosized Cooling Design Capacity
  HeatingDesignCapacity,                  !- Heating Design Capacity Method
  autosize,                               !- Heating Design Capacity {W}
  157,                                    !- Heating Design Capacity Per Floor Area {W/m2}
  1,                                      !- Fraction of Autosized Heating Design Capacity
  OnOff;                                  !- Central Cooling Capacity Control Method

OS:Schedule:Constant,
  {e03cfba9-35cd-4c79-9f31-79fe68d02594}, !- Handle
  Always On Discrete,                     !- Name
  {e0c28dea-3e2e-403b-bc2d-901305057fe4}, !- Schedule Type Limits Name
  1;                                      !- Value

OS:ScheduleTypeLimits,
  {e0c28dea-3e2e-403b-bc2d-901305057fe4}, !- Handle
  OnOff,                                  !- Name
  0,                                      !- Lower Limit Value
  1,                                      !- Upper Limit Value
  Discrete,                               !- Numeric Type
  Availability;                           !- Unit Type

OS:AvailabilityManagerAssignmentList,
  {0d88912c-1216-4e0c-bae0-50de38550920}, !- Handle
  Air Loop HVAC 1 AvailabilityManagerAssignmentList; !- Name

! TrackingID:#[pcNXto]
OS:Coil:Heating:Water,
  {ac5f1d46-ef62-441e-a310-3ae92517f15d}, !- Handle
  Coil Heating Water 1,                   !- Name
  {e03cfba9-35cd-4c79-9f31-79fe68d02594}, !- Availability Schedule Name
  ,                                       !- U-Factor Times Area Value {W/K}
  ,                                       !- Maximum Water Flow Rate {m3/s}
  ,                                       !- Water Inlet Node Name
  ,                                       !- Water Outlet Node Name
  {796cb1a0-1d5d-44b5-8c47-b3998be9be75}, !- Air Inlet Node Name
  {cfcba980-f7c8-4589-be23-d58ceccae10a}, !- Air Outlet Node Name
  ,                                       !- Performance Input Method
  ,                                       !- Rated Capacity {W}
  ,                                       !- Rated Inlet Water Temperature {C}
  ,                                       !- Rated Inlet Air Temperature {C}
  ,                                       !- Rated Outlet Water Temperature {C}
  ,                                       !- Rated Outlet Air Temperature {C}
  ;                                       !- Rated Ratio for Air and Water Convection

OS:Connection,
  {796cb1a0-1d5d-44b5-8c47-b3998be9be75}, !- Handle
  {9dadf013-2130-4ae1-91e3-0a3b016a6afb}, !- Name
  {5f6f8bc1-3a85-41f9-9a06-b4176c267efc}, !- Source Object
  3,                                      !- Outlet Port
  {ac5f1d46-ef62-441e-a310-3ae92517f15d}, !- Target Object
  7;                                      !- Inlet Port

! TrackingID:#[0MdHop]
OS:Fan:ConstantVolume,
  {3959dee8-f25f-41fb-b1fb-f2543c32be23}, !- Handle
  Fan Constant Volume 1,                  !- Name
  {e03cfba9-35cd-4c79-9f31-79fe68d02594}, !- Availability Schedule Name
  ,                                       !- Fan Efficiency
  ,                                       !- Pressure Rise {Pa}
  AutoSize,                               !- Maximum Flow Rate {m3/s}
  ,                                       !- Motor Efficiency
  ,                                       !- Motor In Airstream Fraction
  {678f22da-0fac-4a39-be01-32efcccbab71}, !- Air Inlet Node Name
  {cd385e00-8854-4881-b7ac-c878ab233448}, !- Air Outlet Node Name
  ;                                       !- End-Use Subcategory

OS:Node,
  {69754096-c980-40e0-a7d9-4ea7ae1bcc28}, !- Handle
  Node 6,                                 !- Name
  {cfcba980-f7c8-4589-be23-d58ceccae10a}, !- Inlet Port
  {678f22da-0fac-4a39-be01-32efcccbab71}; !- Outlet Port

OS:Connection,
  {cfcba980-f7c8-4589-be23-d58ceccae10a}, !- Handle
  {5cc2b0f2-1b25-46b7-97e9-ad28e7f960d7}, !- Name
  {ac5f1d46-ef62-441e-a310-3ae92517f15d}, !- Source Object
  8,                                      !- Outlet Port
  {69754096-c980-40e0-a7d9-4ea7ae1bcc28}, !- Target Object
  2;                                      !- Inlet Port

OS:Connection,
  {678f22da-0fac-4a39-be01-32efcccbab71}, !- Handle
  {a9a76016-a991-44b2-8a45-79c67d8cc611}, !- Name
  {69754096-c980-40e0-a7d9-4ea7ae1bcc28}, !- Source Object
  3,                                      !- Outlet Port
  {3959dee8-f25f-41fb-b1fb-f2543c32be23}, !- Target Object
  8;                                      !- Inlet Port

OS:Connection,
  {cd385e00-8854-4881-b7ac-c878ab233448}, !- Handle
  {04c82d25-035e-4cec-b93b-2b7db58de9bb}, !- Name
  {3959dee8-f25f-41fb-b1fb-f2543c32be23}, !- Source Object
  9,                                      !- Outlet Port
  {66a26189-41df-4dca-aa9f-9f370564ddfb}, !- Target Object
  2;                                      !- Inlet Port

