
OS:Version,
  {54ba59c0-da3e-4770-bbb5-6626962e14aa}, !- Handle
  2.4.0;                                  !- Version Identifier

OS:Site,
  {05434a70-62c7-4503-8c48-b541842c670a}, !- Handle
  Site 1,                                 !- Name
  ,                                       !- Latitude {deg}
  ,                                       !- Longitude {deg}
  ,                                       !- Time Zone {hr}
  ,                                       !- Elevation {m}
  ;                                       !- Terrain

OS:YearDescription,
  {eeb90ec8-73ea-4ede-a080-cfdfb7e9c631}; !- Handle

OS:ClimateZones,
  {ed5ef348-ff69-4d27-a05b-e41e88caa7cb}, !- Handle
  ,                                       !- Active Institution
  ,                                       !- Active Year
  ,                                       !- Climate Zone Institution Name 1
  ,                                       !- Climate Zone Document Name 1
  ,                                       !- Climate Zone Document Year 1
  ,                                       !- Climate Zone Value 1
  CEC,                                    !- Climate Zone Institution Name 2
  California Climate Zone Descriptions,   !- Climate Zone Document Name 2
  1995,                                   !- Climate Zone Document Year 2
  ;                                       !- Climate Zone Value 2

OS:Building,
  {b8cf50c0-3e97-426a-ba79-cd88094c77a7}, !- Handle
  Building 1,                             !- Name
  ,                                       !- Building Sector Type
  ,                                       !- North Axis {deg}
  ,                                       !- Nominal Floor to Floor Height {m}
  ,                                       !- Space Type Name
  ,                                       !- Default Construction Set Name
  ;                                       !- Default Schedule Set Name

OS:Facility,
  {1d179c43-e4f0-4e1d-8425-b684445b13ec}; !- Handle

OS:SimulationControl,
  {2f9ec432-9d60-4970-9c33-fd7721e93bb5}; !- Handle

OS:Sizing:Parameters,
  {df7e76a6-f899-4e5d-aa7f-14c9514bc240}, !- Handle
  1.25,                                   !- Heating Sizing Factor
  1.15;                                   !- Cooling Sizing Factor

OS:Timestep,
  {875f92db-3925-41cd-88f0-653912d7d558}, !- Handle
  6;                                      !- Number of Timesteps per Hour

OS:ShadowCalculation,
  {4caa93f5-5e24-45ca-ab7b-b87bb9051f83}, !- Handle
  20,                                     !- Calculation Frequency
  15000;                                  !- Maximum Figures in Shadow Overlap Calculations

OS:HeatBalanceAlgorithm,
  {643096b3-5938-4c49-b35e-ccf434c56d5f}, !- Handle
  ConductionTransferFunction,             !- Algorithm
  200;                                    !- Surface Temperature Upper Limit {C}

OS:RunPeriod,
  {7fd01dbe-5dec-410e-b008-32ffb319efa8}, !- Handle
  Run Period 1,                           !- Name
  1,                                      !- Begin Month
  1,                                      !- Begin Day of Month
  12,                                     !- End Month
  31,                                     !- End Day of Month
  ,                                       !- Use Weather File Holidays and Special Days
  ,                                       !- Use Weather File Daylight Saving Period
  ,                                       !- Apply Weekend Holiday Rule
  ,                                       !- Use Weather File Rain Indicators
  ,                                       !- Use Weather File Snow Indicators
  ;                                       !- Number of Times Runperiod to be Repeated

OS:LifeCycleCost:Parameters,
  {ebe5a6d1-7b0d-400d-976d-638e1cc9a5fe}, !- Handle
  ,                                       !- Analysis Type
  ,                                       !- Discounting Convention
  ,                                       !- Inflation Approach
  ,                                       !- Real Discount Rate
  ,                                       !- Nominal Discount Rate
  ,                                       !- Inflation
  ,                                       !- Base Date Month
  ,                                       !- Base Date Year
  ,                                       !- Service Date Month
  ,                                       !- Service Date Year
  ;                                       !- Length of Study Period in Years

OS:AirLoopHVAC,
  {7863c9d5-3f41-4779-ba61-a4823d29a03c}, !- Handle
  _VAV with Reheat,                       !- Name
  ,                                       !- Controller List Name
  {c794982d-63fc-4d22-bd16-3e783120b8c4}, !- Availability Schedule
  {ab7e5610-5803-4344-816e-a36989486999}, !- Availability Manager List Name
  AutoSize,                               !- Design Supply Air Flow Rate {m3/s}
  ,                                       !- Branch List Name
  ,                                       !- Connector List Name
  {cc95ca9f-24cc-47ad-b669-db9a3d68dbc9}, !- Supply Side Inlet Node Name
  {89aa8328-7fbf-4433-8047-c033acec6fb9}, !- Demand Side Outlet Node Name
  {208efe89-b38d-486a-b93a-5661c470d0d2}, !- Demand Side Inlet Node A
  {3342d672-c53d-4f61-ac8b-4504a3c8121f}, !- Supply Side Outlet Node A
  ,                                       !- Demand Side Inlet Node B
  ,                                       !- Supply Side Outlet Node B
  ,                                       !- Return Air Bypass Flow Temperature Setpoint Schedule Name
  {c4800032-bd8b-45ce-aaac-176f63144651}, !- Demand Mixer Name
  {bfad4c7a-07b3-4cf4-a934-667f73e6397e}, !- Demand Splitter A Name
  ,                                       !- Demand Splitter B Name
  ;                                       !- Supply Splitter Name

OS:Node,
  {866741ff-4022-4c87-aa7b-5c2a64f49315}, !- Handle
  Node 1,                                 !- Name
  {cc95ca9f-24cc-47ad-b669-db9a3d68dbc9}, !- Inlet Port
  {6024bce8-1fbf-4277-b81b-ef38c356d0b1}; !- Outlet Port

OS:Node,
  {98f59952-2401-409f-8143-5842b62c2f29}, !- Handle
  Node 2,                                 !- Name
  {7c1e6317-f39b-452e-b331-e819d95a878f}, !- Inlet Port
  {3342d672-c53d-4f61-ac8b-4504a3c8121f}; !- Outlet Port

OS:Connection,
  {cc95ca9f-24cc-47ad-b669-db9a3d68dbc9}, !- Handle
  {9333f61b-21bd-4d0e-a14b-bc499b3e0221}, !- Name
  {7863c9d5-3f41-4779-ba61-a4823d29a03c}, !- Source Object
  8,                                      !- Outlet Port
  {866741ff-4022-4c87-aa7b-5c2a64f49315}, !- Target Object
  2;                                      !- Inlet Port

OS:Connection,
  {3342d672-c53d-4f61-ac8b-4504a3c8121f}, !- Handle
  {4f036a44-4d7b-4312-ab8b-6c7a77049cca}, !- Name
  {98f59952-2401-409f-8143-5842b62c2f29}, !- Source Object
  3,                                      !- Outlet Port
  {7863c9d5-3f41-4779-ba61-a4823d29a03c}, !- Target Object
  11;                                     !- Inlet Port

OS:Node,
  {0ae2aeb5-e702-4ba1-b140-91ab4a31a345}, !- Handle
  Node 3,                                 !- Name
  {208efe89-b38d-486a-b93a-5661c470d0d2}, !- Inlet Port
  {a90e0017-7d9b-496a-acc9-7a873e69cda3}; !- Outlet Port

OS:Node,
  {fbd00ae5-0c8d-412f-8d3d-1e31672bad7f}, !- Handle
  Node 4,                                 !- Name
  {0ea6ca0c-b1d0-4495-8cfe-e6ebf704ff51}, !- Inlet Port
  {89aa8328-7fbf-4433-8047-c033acec6fb9}; !- Outlet Port

OS:Node,
  {1bad0daf-5373-47f0-ad0b-6b09e4972e26}, !- Handle
  Node 5,                                 !- Name
  {2cc1af5c-4cbe-45d0-9769-b9c245d6d491}, !- Inlet Port
  {69f5ffb9-2d69-4f2c-b465-d7598d661c5c}; !- Outlet Port

OS:Connection,
  {208efe89-b38d-486a-b93a-5661c470d0d2}, !- Handle
  {94e5d0f7-0ffd-4667-809c-d2a6052eace1}, !- Name
  {7863c9d5-3f41-4779-ba61-a4823d29a03c}, !- Source Object
  10,                                     !- Outlet Port
  {0ae2aeb5-e702-4ba1-b140-91ab4a31a345}, !- Target Object
  2;                                      !- Inlet Port

OS:Connection,
  {89aa8328-7fbf-4433-8047-c033acec6fb9}, !- Handle
  {8abb4d39-db2e-48a2-a1fa-f2148b0d920f}, !- Name
  {fbd00ae5-0c8d-412f-8d3d-1e31672bad7f}, !- Source Object
  3,                                      !- Outlet Port
  {7863c9d5-3f41-4779-ba61-a4823d29a03c}, !- Target Object
  9;                                      !- Inlet Port

OS:AirLoopHVAC:ZoneSplitter,
  {bfad4c7a-07b3-4cf4-a934-667f73e6397e}, !- Handle
  Air Loop HVAC Zone Splitter 1,          !- Name
  {a90e0017-7d9b-496a-acc9-7a873e69cda3}, !- Inlet Node Name
  {2cc1af5c-4cbe-45d0-9769-b9c245d6d491}; !- Outlet Node Name 1

OS:AirLoopHVAC:ZoneMixer,
  {c4800032-bd8b-45ce-aaac-176f63144651}, !- Handle
  Air Loop HVAC Zone Mixer 1,             !- Name
  {0ea6ca0c-b1d0-4495-8cfe-e6ebf704ff51}, !- Outlet Node Name
  {69f5ffb9-2d69-4f2c-b465-d7598d661c5c}; !- Inlet Node Name 1

OS:Connection,
  {a90e0017-7d9b-496a-acc9-7a873e69cda3}, !- Handle
  {b5d02a37-bf72-4ca1-bc4a-fd1d9e743c68}, !- Name
  {0ae2aeb5-e702-4ba1-b140-91ab4a31a345}, !- Source Object
  3,                                      !- Outlet Port
  {bfad4c7a-07b3-4cf4-a934-667f73e6397e}, !- Target Object
  2;                                      !- Inlet Port

OS:Connection,
  {2cc1af5c-4cbe-45d0-9769-b9c245d6d491}, !- Handle
  {32bf51c6-87c4-4463-9405-ea97d5576b66}, !- Name
  {bfad4c7a-07b3-4cf4-a934-667f73e6397e}, !- Source Object
  3,                                      !- Outlet Port
  {1bad0daf-5373-47f0-ad0b-6b09e4972e26}, !- Target Object
  2;                                      !- Inlet Port

OS:Connection,
  {69f5ffb9-2d69-4f2c-b465-d7598d661c5c}, !- Handle
  {175f7efa-b9c8-4c13-8f39-be9038da7c42}, !- Name
  {1bad0daf-5373-47f0-ad0b-6b09e4972e26}, !- Source Object
  3,                                      !- Outlet Port
  {c4800032-bd8b-45ce-aaac-176f63144651}, !- Target Object
  3;                                      !- Inlet Port

OS:Connection,
  {0ea6ca0c-b1d0-4495-8cfe-e6ebf704ff51}, !- Handle
  {5e8bbbb4-ff92-4da6-8692-4f1305c726d5}, !- Name
  {c4800032-bd8b-45ce-aaac-176f63144651}, !- Source Object
  2,                                      !- Outlet Port
  {fbd00ae5-0c8d-412f-8d3d-1e31672bad7f}, !- Target Object
  2;                                      !- Inlet Port

OS:Sizing:System,
  {956fef97-4cd7-448d-9352-8cfcaeb9fd10}, !- Handle
  {7863c9d5-3f41-4779-ba61-a4823d29a03c}, !- AirLoop Name
  Sensible,                               !- Type of Load to Size On
  Autosize,                               !- Design Outdoor Air Flow Rate {m3/s}
  0.3,                                    !- Minimum System Air Flow Ratio
  7,                                      !- Preheat Design Temperature {C}
  0.008,                                  !- Preheat Design Humidity Ratio {kg-H2O/kg-Air}
  12.8,                                   !- Precool Design Temperature {C}
  0.008,                                  !- Precool Design Humidity Ratio {kg-H2O/kg-Air}
  12.8,                                   !- Central Cooling Design Supply Air Temperature {C}
  16.7,                                   !- Central Heating Design Supply Air Temperature {C}
  NonCoincident,                          !- Sizing Option
  Yes,                                    !- 100% Outdoor Air in Cooling
  Yes,                                    !- 100% Outdoor Air in Heating
  0.0085,                                 !- Central Cooling Design Supply Air Humidity Ratio {kg-H2O/kg-Air}
  0.008,                                  !- Central Heating Design Supply Air Humidity Ratio {kg-H2O/kg-Air}
  DesignDay,                              !- Cooling Design Air Flow Method
  0,                                      !- Cooling Design Air Flow Rate {m3/s}
  DesignDay,                              !- Heating Design Air Flow Method
  0,                                      !- Heating Design Air Flow Rate {m3/s}
  ZoneSum,                                !- System Outdoor Air Method
  1,                                      !- Zone Maximum Outdoor Air Fraction {dimensionless}
  0.0099676501,                           !- Cooling Supply Air Flow Rate Per Floor Area {m3/s-m2}
  1,                                      !- Cooling Fraction of Autosized Cooling Supply Air Flow Rate
  3.9475456e-005,                         !- Cooling Supply Air Flow Rate Per Unit Cooling Capacity {m3/s-W}
  0.0099676501,                           !- Heating Supply Air Flow Rate Per Floor Area {m3/s-m2}
  1,                                      !- Heating Fraction of Autosized Heating Supply Air Flow Rate
  1,                                      !- Heating Fraction of Autosized Cooling Supply Air Flow Rate
  3.1588213e-005,                         !- Heating Supply Air Flow Rate Per Unit Heating Capacity {m3/s-W}
  CoolingDesignCapacity,                  !- Cooling Design Capacity Method
  autosize,                               !- Cooling Design Capacity {W}
  234.7,                                  !- Cooling Design Capacity Per Floor Area {W/m2}
  1,                                      !- Fraction of Autosized Cooling Design Capacity
  HeatingDesignCapacity,                  !- Heating Design Capacity Method
  autosize,                               !- Heating Design Capacity {W}
  157,                                    !- Heating Design Capacity Per Floor Area {W/m2}
  1,                                      !- Fraction of Autosized Heating Design Capacity
  OnOff;                                  !- Central Cooling Capacity Control Method

OS:Schedule:Constant,
  {c794982d-63fc-4d22-bd16-3e783120b8c4}, !- Handle
  Always On Discrete,                     !- Name
  {859e453d-c133-4e26-a002-4f15e3a4172d}, !- Schedule Type Limits Name
  1;                                      !- Value

OS:ScheduleTypeLimits,
  {859e453d-c133-4e26-a002-4f15e3a4172d}, !- Handle
  OnOff,                                  !- Name
  0,                                      !- Lower Limit Value
  1,                                      !- Upper Limit Value
  Discrete,                               !- Numeric Type
  Availability;                           !- Unit Type

OS:AvailabilityManagerAssignmentList,
  {ab7e5610-5803-4344-816e-a36989486999}, !- Handle
  Air Loop HVAC 1 AvailabilityManagerAssignmentList; !- Name

OS:AirLoopHVAC:OutdoorAirSystem,
  {1de69cf9-ad0b-44d0-a412-627e09565a2c}, !- Handle
  OA System,                              !- Name
  {b8ae4419-54f8-42d4-9bed-c9f89fb512f3}, !- Controller Name
  ,                                       !- Outdoor Air Equipment List Name
  ,                                       !- Availability Manager List Name
  {9b08a28f-8a26-476a-9eb3-3394bab0e7d7}, !- Mixed Air Node Name
  {6d480f20-0e96-47e8-ac1f-99b2aee7d702}, !- Outdoor Air Stream Node Name
  {c93d39ff-f1db-4d20-a607-2244b9b1587d}, !- Relief Air Stream Node Name
  {6024bce8-1fbf-4277-b81b-ef38c356d0b1}; !- Return Air Stream Node Name

OS:Controller:OutdoorAir,
  {b8ae4419-54f8-42d4-9bed-c9f89fb512f3}, !- Handle
  Outdoor Air Controller,                 !- Name
  ,                                       !- Relief Air Outlet Node Name
  ,                                       !- Return Air Node Name
  ,                                       !- Mixed Air Node Name
  ,                                       !- Actuator Node Name
  Autosize,                               !- Minimum Outdoor Air Flow Rate {m3/s}
  Autosize,                               !- Maximum Outdoor Air Flow Rate {m3/s}
  NoEconomizer,                           !- Economizer Control Type
  ModulateFlow,                           !- Economizer Control Action Type
  28,                                     !- Economizer Maximum Limit Dry-Bulb Temperature {C}
  64000,                                  !- Economizer Maximum Limit Enthalpy {J/kg}
  ,                                       !- Economizer Maximum Limit Dewpoint Temperature {C}
  ,                                       !- Electronic Enthalpy Limit Curve Name
  -100,                                   !- Economizer Minimum Limit Dry-Bulb Temperature {C}
  NoLockout,                              !- Lockout Type
  FixedMinimum,                           !- Minimum Limit Type
  ,                                       !- Minimum Outdoor Air Schedule Name
  ,                                       !- Minimum Fraction of Outdoor Air Schedule Name
  ,                                       !- Maximum Fraction of Outdoor Air Schedule Name
  {34ca6614-256b-4fc8-ac8a-8ab3df3f7ed0}, !- Controller Mechanical Ventilation
  ,                                       !- Time of Day Economizer Control Schedule Name
  No,                                     !- High Humidity Control
  ,                                       !- Humidistat Control Zone Name
  ,                                       !- High Humidity Outdoor Air Flow Ratio
  ,                                       !- Control High Indoor Humidity Based on Outdoor Humidity Ratio
  BypassWhenOAFlowGreaterThanMinimum;     !- Heat Recovery Bypass Control Type

OS:Controller:MechanicalVentilation,
  {34ca6614-256b-4fc8-ac8a-8ab3df3f7ed0}, !- Handle
  Controller Mechanical Ventilation 1,    !- Name
  {aa4e33a1-21ac-4012-aa21-f1bb9b3907f5}, !- Availability Schedule
  ,                                       !- Demand Controlled Ventilation
  ZoneSum;                                !- System Outdoor Air Method

! Always On Discrete
OS:Schedule:Constant,
  {aa4e33a1-21ac-4012-aa21-f1bb9b3907f5}, !- Handle
  Always On Discrete hvac_library,        !- Name
  {65f3ce89-55c6-48d0-98fd-8eb21a264c0a}, !- Schedule Type Limits Name
  1;                                      !- Value

! Always OnOff Discrete Schedule Type Limits
OS:ScheduleTypeLimits,
  {65f3ce89-55c6-48d0-98fd-8eb21a264c0a}, !- Handle
  OnOff hvac_library,                     !- Name
  0,                                      !- Lower Limit Value
  1,                                      !- Upper Limit Value
  Discrete,                               !- Numeric Type
  Availability;                           !- Unit Type

OS:Node,
  {575eb17e-7edc-46c5-9914-18782cb7b476}, !- Handle
  Node 6,                                 !- Name
  ,                                       !- Inlet Port
  {f4964f7e-de94-4c6c-a5e7-58428aa6f761}; !- Outlet Port

OS:Node,
  {ded3144c-5c05-4a45-82dc-c673c5fa7235}, !- Handle
  Node 7,                                 !- Name
  {ee2a4be9-143f-4090-83b8-3dce2f75a53b}, !- Inlet Port
  ;                                       !- Outlet Port

OS:HeatExchanger:AirToAir:SensibleAndLatent,
  {190e0013-18ee-45f1-baa2-b5f2cf970996}, !- Handle
  ERV HX ++,                              !- Name
  {aa4e33a1-21ac-4012-aa21-f1bb9b3907f5}, !- Availability Schedule
  autosize,                               !- Nominal Supply Air Flow Rate {m3/s}
  0.76,                                   !- Sensible Effectiveness at 100% Heating Air Flow {dimensionless}
  0.68,                                   !- Latent Effectiveness at 100% Heating Air Flow {dimensionless}
  0.81,                                   !- Sensible Effectiveness at 75% Heating Air Flow {dimensionless}
  0.73,                                   !- Latent Effectiveness at 75% Heating Air Flow {dimensionless}
  0.76,                                   !- Sensible Effectiveness at 100% Cooling Air Flow {dimensionless}
  0.5,                                    !- Latent Effectiveness at 100% Cooling Air Flow {dimensionless}
  0.5,                                    !- Sensible Effectiveness at 75% Cooling Air Flow {dimensionless}
  0.5,                                    !- Latent Effectiveness at 75% Cooling Air Flow {dimensionless}
  {f4964f7e-de94-4c6c-a5e7-58428aa6f761}, !- Supply Air Inlet Node
  {28a77a18-f6c9-46b8-8a9c-674f7755b405}, !- Supply Air Outlet Node
  {ed961967-61e5-47c2-814a-bf00a51ec0c5}, !- Exhaust Air Inlet Node
  {ee2a4be9-143f-4090-83b8-3dce2f75a53b}, !- Exhaust Air Outlet Node
  0,                                      !- Nominal Electric Power {W}
  No,                                     !- Supply Air Outlet Temperature Control
  Rotary,                                 !- Heat Exchanger Type
  None,                                   !- Frost Control Type
  1.7,                                    !- Threshold Temperature {C}
  ,                                       !- Initial Defrost Time Fraction {dimensionless}
  ,                                       !- Rate of Defrost Time Fraction Increase {1/K}
  No;                                     !- Economizer Lockout

OS:HeatExchanger:AirToAir:SensibleAndLatent,
  {a806087f-98b4-44fe-93ea-6fb498161f7d}, !- Handle
  ERV HX ++ 1,                            !- Name
  {aa4e33a1-21ac-4012-aa21-f1bb9b3907f5}, !- Availability Schedule
  autosize,                               !- Nominal Supply Air Flow Rate {m3/s}
  0.76,                                   !- Sensible Effectiveness at 100% Heating Air Flow {dimensionless}
  0.68,                                   !- Latent Effectiveness at 100% Heating Air Flow {dimensionless}
  0.81,                                   !- Sensible Effectiveness at 75% Heating Air Flow {dimensionless}
  0.73,                                   !- Latent Effectiveness at 75% Heating Air Flow {dimensionless}
  0.76,                                   !- Sensible Effectiveness at 100% Cooling Air Flow {dimensionless}
  0.5,                                    !- Latent Effectiveness at 100% Cooling Air Flow {dimensionless}
  0.5,                                    !- Sensible Effectiveness at 75% Cooling Air Flow {dimensionless}
  0.5,                                    !- Latent Effectiveness at 75% Cooling Air Flow {dimensionless}
  ,                                       !- Supply Air Inlet Node
  ,                                       !- Supply Air Outlet Node
  ,                                       !- Exhaust Air Inlet Node
  ,                                       !- Exhaust Air Outlet Node
  0,                                      !- Nominal Electric Power {W}
  No,                                     !- Supply Air Outlet Temperature Control
  Rotary,                                 !- Heat Exchanger Type
  None,                                   !- Frost Control Type
  1.7,                                    !- Threshold Temperature {C}
  ,                                       !- Initial Defrost Time Fraction {dimensionless}
  ,                                       !- Rate of Defrost Time Fraction Increase {1/K}
  No;                                     !- Economizer Lockout

OS:Node,
  {62b48984-9a4c-4e30-bd12-61cb492ee064}, !- Handle
  Node 9,                                 !- Name
  {28a77a18-f6c9-46b8-8a9c-674f7755b405}, !- Inlet Port
  {6d480f20-0e96-47e8-ac1f-99b2aee7d702}; !- Outlet Port

OS:Connection,
  {f4964f7e-de94-4c6c-a5e7-58428aa6f761}, !- Handle
  {7d9c1d0b-5d39-4b82-8f8e-7cb1b48cecc1}, !- Name
  {575eb17e-7edc-46c5-9914-18782cb7b476}, !- Source Object
  3,                                      !- Outlet Port
  {190e0013-18ee-45f1-baa2-b5f2cf970996}, !- Target Object
  12;                                     !- Inlet Port

OS:Connection,
  {28a77a18-f6c9-46b8-8a9c-674f7755b405}, !- Handle
  {370bf630-e2ed-472c-a429-84cd40ffde5a}, !- Name
  {190e0013-18ee-45f1-baa2-b5f2cf970996}, !- Source Object
  13,                                     !- Outlet Port
  {62b48984-9a4c-4e30-bd12-61cb492ee064}, !- Target Object
  2;                                      !- Inlet Port

OS:Connection,
  {6d480f20-0e96-47e8-ac1f-99b2aee7d702}, !- Handle
  {bc0d6dd5-e2b3-4103-bba4-ed301655b859}, !- Name
  {62b48984-9a4c-4e30-bd12-61cb492ee064}, !- Source Object
  3,                                      !- Outlet Port
  {1de69cf9-ad0b-44d0-a412-627e09565a2c}, !- Target Object
  6;                                      !- Inlet Port

OS:Node,
  {816e5c57-c0fe-46c5-8c2e-f9d581d948e5}, !- Handle
  Node 10,                                !- Name
  {c93d39ff-f1db-4d20-a607-2244b9b1587d}, !- Inlet Port
  {ed961967-61e5-47c2-814a-bf00a51ec0c5}; !- Outlet Port

OS:Connection,
  {c93d39ff-f1db-4d20-a607-2244b9b1587d}, !- Handle
  {f18e0d9b-4797-4bdb-8513-6ba6adeeb131}, !- Name
  {1de69cf9-ad0b-44d0-a412-627e09565a2c}, !- Source Object
  7,                                      !- Outlet Port
  {816e5c57-c0fe-46c5-8c2e-f9d581d948e5}, !- Target Object
  2;                                      !- Inlet Port

OS:Connection,
  {ed961967-61e5-47c2-814a-bf00a51ec0c5}, !- Handle
  {2e271e90-f825-45cb-aeb8-bf6e15f904bd}, !- Name
  {816e5c57-c0fe-46c5-8c2e-f9d581d948e5}, !- Source Object
  3,                                      !- Outlet Port
  {190e0013-18ee-45f1-baa2-b5f2cf970996}, !- Target Object
  14;                                     !- Inlet Port

OS:Connection,
  {ee2a4be9-143f-4090-83b8-3dce2f75a53b}, !- Handle
  {2b905aae-37d8-424d-8780-fc653da2f7f9}, !- Name
  {190e0013-18ee-45f1-baa2-b5f2cf970996}, !- Source Object
  15,                                     !- Outlet Port
  {ded3144c-5c05-4a45-82dc-c673c5fa7235}, !- Target Object
  2;                                      !- Inlet Port

OS:Connection,
  {6024bce8-1fbf-4277-b81b-ef38c356d0b1}, !- Handle
  {3c05a8ae-5072-46f4-b10f-02581fff4d16}, !- Name
  {866741ff-4022-4c87-aa7b-5c2a64f49315}, !- Source Object
  3,                                      !- Outlet Port
  {1de69cf9-ad0b-44d0-a412-627e09565a2c}, !- Target Object
  8;                                      !- Inlet Port

OS:Coil:Cooling:Water,
  {88bdc208-7d69-438d-a91f-d47f13cab083}, !- Handle
  Coil Cooling Water 1,                   !- Name
  {c794982d-63fc-4d22-bd16-3e783120b8c4}, !- Availability Schedule Name
  ,                                       !- Design Water Flow Rate {m3/s}
  ,                                       !- Design Air Flow Rate {m3/s}
  ,                                       !- Design Inlet Water Temperature {C}
  ,                                       !- Design Inlet Air Temperature {C}
  ,                                       !- Design Outlet Air Temperature {C}
  ,                                       !- Design Inlet Air Humidity Ratio {kg-H2O/kg-air}
  ,                                       !- Design Outlet Air Humidity Ratio {kg-H2O/kg-air}
  ,                                       !- Water Inlet Node Name
  ,                                       !- Water Outlet Node Name
  {c636bf96-3954-4194-a3db-2f0ec87c6e64}, !- Air Inlet Node Name
  {89540501-e9ac-40a2-9762-0b521d45aec4}, !- Air Outlet Node Name
  ,                                       !- Type of Analysis
  ;                                       !- Heat Exchanger Configuration

OS:Node,
  {01297f17-f038-45bf-a37a-d70ee1caeac7}, !- Handle
  Node 8,                                 !- Name
  {9b08a28f-8a26-476a-9eb3-3394bab0e7d7}, !- Inlet Port
  {c636bf96-3954-4194-a3db-2f0ec87c6e64}; !- Outlet Port

OS:Connection,
  {9b08a28f-8a26-476a-9eb3-3394bab0e7d7}, !- Handle
  {3cb9df0b-f13e-4299-8655-9ceb5035d2b1}, !- Name
  {1de69cf9-ad0b-44d0-a412-627e09565a2c}, !- Source Object
  5,                                      !- Outlet Port
  {01297f17-f038-45bf-a37a-d70ee1caeac7}, !- Target Object
  2;                                      !- Inlet Port

OS:Connection,
  {c636bf96-3954-4194-a3db-2f0ec87c6e64}, !- Handle
  {497e07d8-bdbe-4d98-8368-0067b9304bbe}, !- Name
  {01297f17-f038-45bf-a37a-d70ee1caeac7}, !- Source Object
  3,                                      !- Outlet Port
  {88bdc208-7d69-438d-a91f-d47f13cab083}, !- Target Object
  12;                                     !- Inlet Port

OS:Coil:Heating:Water,
  {e2d1775d-031f-42a3-80de-d4c76275d4c2}, !- Handle
  Coil Heating Water 1,                   !- Name
  {c794982d-63fc-4d22-bd16-3e783120b8c4}, !- Availability Schedule Name
  ,                                       !- U-Factor Times Area Value {W/K}
  ,                                       !- Maximum Water Flow Rate {m3/s}
  ,                                       !- Water Inlet Node Name
  ,                                       !- Water Outlet Node Name
  {252f513c-fa7a-40c2-be17-642290a95884}, !- Air Inlet Node Name
  {78dfecb0-a0a8-4634-95b2-2ff86824ded9}, !- Air Outlet Node Name
  ,                                       !- Performance Input Method
  ,                                       !- Rated Capacity {W}
  ,                                       !- Rated Inlet Water Temperature {C}
  ,                                       !- Rated Inlet Air Temperature {C}
  ,                                       !- Rated Outlet Water Temperature {C}
  ,                                       !- Rated Outlet Air Temperature {C}
  ;                                       !- Rated Ratio for Air and Water Convection

OS:Node,
  {084b7395-0953-4462-bbab-3f25aa7d4262}, !- Handle
  Node 11,                                !- Name
  {89540501-e9ac-40a2-9762-0b521d45aec4}, !- Inlet Port
  {252f513c-fa7a-40c2-be17-642290a95884}; !- Outlet Port

OS:Connection,
  {89540501-e9ac-40a2-9762-0b521d45aec4}, !- Handle
  {5f3d9946-9daa-4f4f-8773-e3fddcc15e32}, !- Name
  {88bdc208-7d69-438d-a91f-d47f13cab083}, !- Source Object
  13,                                     !- Outlet Port
  {084b7395-0953-4462-bbab-3f25aa7d4262}, !- Target Object
  2;                                      !- Inlet Port

OS:Connection,
  {252f513c-fa7a-40c2-be17-642290a95884}, !- Handle
  {08c550f4-d1c1-4ad6-a9ff-bcb9c8485121}, !- Name
  {084b7395-0953-4462-bbab-3f25aa7d4262}, !- Source Object
  3,                                      !- Outlet Port
  {e2d1775d-031f-42a3-80de-d4c76275d4c2}, !- Target Object
  7;                                      !- Inlet Port

OS:Fan:VariableVolume,
  {b843983d-5283-4f60-ab65-90956428a058}, !- Handle
  Fan Variable Volume 1,                  !- Name
  {c794982d-63fc-4d22-bd16-3e783120b8c4}, !- Availability Schedule Name
  0.6045,                                 !- Fan Efficiency
  500,                                    !- Pressure Rise {Pa}