
OS:Version,
  {704301c1-f027-4090-a7ef-ff1992b6b7aa}, !- Handle
  2.4.0;                                  !- Version Identifier

! TrackingID:#[7D58Bt]
OS:AirLoopHVAC,
  {39494341-6481-407e-a558-b37551f981a7}, !- Handle
  Air Loop HVAC 1,                        !- Name
  ,                                       !- Controller List Name
  {260ad0b3-0f8e-426c-b999-763804ffd8e4}, !- Availability Schedule
  {0f65697b-977d-460d-a169-86c1a6c4d466}, !- Availability Manager List Name
  AutoSize,                               !- Design Supply Air Flow Rate {m3/s}
  ,                                       !- Branch List Name
  ,                                       !- Connector List Name
  {6f9f480e-ec9a-438c-8413-91580776d6e3}, !- Supply Side Inlet Node Name
  {e243c898-09c4-45c9-933e-0fc42d24e59d}, !- Demand Side Outlet Node Name
  {94b74d9b-2a59-44aa-8722-9e78d6e4a1b5}, !- Demand Side Inlet Node A
  {6fb8ac18-15ad-43f1-9576-1e327d399eae}, !- Supply Side Outlet Node A
  ,                                       !- Demand Side Inlet Node B
  ,                                       !- Supply Side Outlet Node B
  ,                                       !- Return Air Bypass Flow Temperature Setpoint Schedule Name
  {f09dd5ce-0f13-422f-a3bf-7523687fb4cd}, !- Demand Mixer Name
  {0fdab3f7-4424-42e9-aad2-801e361c7d01}, !- Demand Splitter A Name
  ,                                       !- Demand Splitter B Name
  ;                                       !- Supply Splitter Name

OS:Node,
  {7c2e4085-5547-4074-9efe-40954f4e40d9}, !- Handle
  Node 1,                                 !- Name
  {6f9f480e-ec9a-438c-8413-91580776d6e3}, !- Inlet Port
  {dd30ef62-6720-46ca-ba7d-42d53eb6f4b8}; !- Outlet Port

OS:Node,
  {4dcd153e-5872-413e-85f6-663182f6c15b}, !- Handle
  Node 2,                                 !- Name
  {74eaba35-f188-4e04-a77f-99d0a552b3d0}, !- Inlet Port
  {6fb8ac18-15ad-43f1-9576-1e327d399eae}; !- Outlet Port

OS:Connection,
  {6f9f480e-ec9a-438c-8413-91580776d6e3}, !- Handle
  {c3ef085d-defe-443a-a6f8-d65ce5bc3853}, !- Name
  {39494341-6481-407e-a558-b37551f981a7}, !- Source Object
  8,                                      !- Outlet Port
  {7c2e4085-5547-4074-9efe-40954f4e40d9}, !- Target Object
  2;                                      !- Inlet Port

OS:Connection,
  {6fb8ac18-15ad-43f1-9576-1e327d399eae}, !- Handle
  {7b03d175-a7c2-46c2-aba2-cbf397e41ac6}, !- Name
  {4dcd153e-5872-413e-85f6-663182f6c15b}, !- Source Object
  3,                                      !- Outlet Port
  {39494341-6481-407e-a558-b37551f981a7}, !- Target Object
  11;                                     !- Inlet Port

OS:Node,
  {7ed0773e-87c6-4512-b5a9-8f38e84f29c9}, !- Handle
  Node 3,                                 !- Name
  {94b74d9b-2a59-44aa-8722-9e78d6e4a1b5}, !- Inlet Port
  {54495ca4-e97c-4ff0-a513-24cbe1ae1de8}; !- Outlet Port

OS:Node,
  {33e08041-785e-456b-9752-24d419290081}, !- Handle
  Node 4,                                 !- Name
  {b6bdb1de-202a-4766-8686-75d293e7719a}, !- Inlet Port
  {e243c898-09c4-45c9-933e-0fc42d24e59d}; !- Outlet Port

OS:Node,
  {b6c47763-81b8-47c8-8bb1-dafcccc2b29b}, !- Handle
  Node 5,                                 !- Name
  {dc16cc21-5956-4f30-a64c-246aaaf985ba}, !- Inlet Port
  {cf84f849-c8b7-46d8-8c13-5274fc0e7a6c}; !- Outlet Port

OS:Connection,
  {94b74d9b-2a59-44aa-8722-9e78d6e4a1b5}, !- Handle
  {7f51f1c6-bfc0-4795-9c64-ed6977312364}, !- Name
  {39494341-6481-407e-a558-b37551f981a7}, !- Source Object
  10,                                     !- Outlet Port
  {7ed0773e-87c6-4512-b5a9-8f38e84f29c9}, !- Target Object
  2;                                      !- Inlet Port

OS:Connection,
  {e243c898-09c4-45c9-933e-0fc42d24e59d}, !- Handle
  {ca2fd8ce-a7c4-466d-a43b-2729976def08}, !- Name
  {33e08041-785e-456b-9752-24d419290081}, !- Source Object
  3,                                      !- Outlet Port
  {39494341-6481-407e-a558-b37551f981a7}, !- Target Object
  9;                                      !- Inlet Port

OS:AirLoopHVAC:ZoneSplitter,
  {0fdab3f7-4424-42e9-aad2-801e361c7d01}, !- Handle
  Air Loop HVAC Zone Splitter 1,          !- Name
  {54495ca4-e97c-4ff0-a513-24cbe1ae1de8}, !- Inlet Node Name
  {a739848f-7661-4679-a631-f349b0820742}, !- Outlet Node Name 1
  {6c137d5d-125b-443b-b822-b7df5994378e}; !- Outlet Node Name 2

OS:AirLoopHVAC:ZoneMixer,
  {f09dd5ce-0f13-422f-a3bf-7523687fb4cd}, !- Handle
  Air Loop HVAC Zone Mixer 1,             !- Name
  {b6bdb1de-202a-4766-8686-75d293e7719a}, !- Outlet Node Name
  {6436cfc3-915a-486d-a08d-2192638924ab}, !- Inlet Node Name 1
  {9111b823-a85b-4f4d-ac32-22fad412ae1d}; !- Inlet Node Name 2

OS:Connection,
  {54495ca4-e97c-4ff0-a513-24cbe1ae1de8}, !- Handle
  {09d354c8-f19f-4c28-9d40-9af8c634e168}, !- Name
  {7ed0773e-87c6-4512-b5a9-8f38e84f29c9}, !- Source Object
  3,                                      !- Outlet Port
  {0fdab3f7-4424-42e9-aad2-801e361c7d01}, !- Target Object
  2;                                      !- Inlet Port

OS:Connection,
  {b6bdb1de-202a-4766-8686-75d293e7719a}, !- Handle
  {1fac4f8c-8edd-4df8-877b-e50e9a714cee}, !- Name
  {f09dd5ce-0f13-422f-a3bf-7523687fb4cd}, !- Source Object
  2,                                      !- Outlet Port
  {33e08041-785e-456b-9752-24d419290081}, !- Target Object
  2;                                      !- Inlet Port

OS:Sizing:System,
  {35b89153-0fc2-42dc-9fbb-ae5348d13522}, !- Handle
  {39494341-6481-407e-a558-b37551f981a7}, !- AirLoop Name
  Sensible,                               !- Type of Load to Size On
  Autosize,                               !- Design Outdoor Air Flow Rate {m3/s}
  0.3,                                    !- Minimum System Air Flow Ratio
  7,                                      !- Preheat Design Temperature {C}
  0.008,                                  !- Preheat Design Humidity Ratio {kg-H2O/kg-Air}
  12.8,                                   !- Precool Design Temperature {C}
  0.008,                                  !- Precool Design Humidity Ratio {kg-H2O/kg-Air}
  12.8,                                   !- Central Cooling Design Supply Air Temperature {C}
  16.7,                                   !- Central Heating Design Supply Air Temperature {C}
  NonCoincident,                          !- Sizing Option
  Yes,                                    !- 100% Outdoor Air in Cooling
  Yes,                                    !- 100% Outdoor Air in Heating
  0.0085,                                 !- Central Cooling Design Supply Air Humidity Ratio {kg-H2O/kg-Air}
  0.008,                                  !- Central Heating Design Supply Air Humidity Ratio {kg-H2O/kg-Air}
  DesignDay,                              !- Cooling Design Air Flow Method
  0,                                      !- Cooling Design Air Flow Rate {m3/s}
  DesignDay,                              !- Heating Design Air Flow Method
  0,                                      !- Heating Design Air Flow Rate {m3/s}
  ZoneSum,                                !- System Outdoor Air Method
  1,                                      !- Zone Maximum Outdoor Air Fraction {dimensionless}
  0.0099676501,                           !- Cooling Supply Air Flow Rate Per Floor Area {m3/s-m2}
  1,                                      !- Cooling Fraction of Autosized Cooling Supply Air Flow Rate
  3.9475456e-005,                         !- Cooling Supply Air Flow Rate Per Unit Cooling Capacity {m3/s-W}
  0.0099676501,                           !- Heating Supply Air Flow Rate Per Floor Area {m3/s-m2}
  1,                                      !- Heating Fraction of Autosized Heating Supply Air Flow Rate
  1,                                      !- Heating Fraction of Autosized Cooling Supply Air Flow Rate
  3.1588213e-005,                         !- Heating Supply Air Flow Rate Per Unit Heating Capacity {m3/s-W}
  CoolingDesignCapacity,                  !- Cooling Design Capacity Method
  autosize,                               !- Cooling Design Capacity {W}
  234.7,                                  !- Cooling Design Capacity Per Floor Area {W/m2}
  1,                                      !- Fraction of Autosized Cooling Design Capacity
  HeatingDesignCapacity,                  !- Heating Design Capacity Method
  autosize,                               !- Heating Design Capacity {W}
  157,                                    !- Heating Design Capacity Per Floor Area {W/m2}
  1,                                      !- Fraction of Autosized Heating Design Capacity
  OnOff;                                  !- Central Cooling Capacity Control Method

OS:Schedule:Constant,
  {260ad0b3-0f8e-426c-b999-763804ffd8e4}, !- Handle
  Always On Discrete,                     !- Name
  {a92944b7-5c6e-49ef-9060-b1eac8f50777}, !- Schedule Type Limits Name
  1;                                      !- Value

OS:ScheduleTypeLimits,
  {a92944b7-5c6e-49ef-9060-b1eac8f50777}, !- Handle
  OnOff,                                  !- Name
  0,                                      !- Lower Limit Value
  1,                                      !- Upper Limit Value
  Discrete,                               !- Numeric Type
  Availability;                           !- Unit Type

OS:AvailabilityManagerAssignmentList,
  {0f65697b-977d-460d-a169-86c1a6c4d466}, !- Handle
  Air Loop HVAC 1 AvailabilityManagerAssignmentList; !- Name

! TrackingID:#[EVmYlX]
OS:Fan:ConstantVolume,
  {a875d63c-0eb6-4d8c-b369-34699878b4e9}, !- Handle
  Fan Constant Volume 1,                  !- Name
  {260ad0b3-0f8e-426c-b999-763804ffd8e4}, !- Availability Schedule Name
  ,                                       !- Fan Efficiency
  ,                                       !- Pressure Rise {Pa}
  AutoSize,                               !- Maximum Flow Rate {m3/s}
  ,                                       !- Motor Efficiency
  ,                                       !- Motor In Airstream Fraction
  {dd30ef62-6720-46ca-ba7d-42d53eb6f4b8}, !- Air Inlet Node Name
  {74eaba35-f188-4e04-a77f-99d0a552b3d0}, !- Air Outlet Node Name
  ;                                       !- End-Use Subcategory

OS:Connection,
  {dd30ef62-6720-46ca-ba7d-42d53eb6f4b8}, !- Handle
  {d5ac3a35-3102-4e6c-9386-cf1fadddfa69}, !- Name
  {7c2e4085-5547-4074-9efe-40954f4e40d9}, !- Source Object
  3,                                      !- Outlet Port
  {a875d63c-0eb6-4d8c-b369-34699878b4e9}, !- Target Object
  8;                                      !- Inlet Port

OS:Connection,
  {74eaba35-f188-4e04-a77f-99d0a552b3d0}, !- Handle
  {be1d8eb3-9d14-4bf7-9c74-a37841f8236d}, !- Name
  {a875d63c-0eb6-4d8c-b369-34699878b4e9}, !- Source Object
  9,                                      !- Outlet Port
  {4dcd153e-5872-413e-85f6-663182f6c15b}, !- Target Object
  2;                                      !- Inlet Port

! TrackingID:#[xA1lan]
OS:ThermalZone,
  {05325a2a-78ea-4fe3-8ed0-da360062f727}, !- Handle
  Thermal Zone 1,                         !- Name
  ,                                       !- Multiplier
  ,                                       !- Ceiling Height {m}
  ,                                       !- Volume {m3}
  ,                                       !- Floor Area {m2}
  ,                                       !- Zone Inside Convection Algorithm
  ,                                       !- Zone Outside Convection Algorithm
  ,                                       !- Zone Conditioning Equipment List Name
  {3d080836-a210-44e0-aa01-580dea929b8b}, !- Zone Air Inlet Port List
  {f9c91e7d-c372-4495-bca7-f21056a153ce}, !- Zone Air Exhaust Port List
  {69ec5f56-cc96-49ae-94f4-e51f7a07fa44}, !- Zone Air Node Name
  {277f58bb-d748-4a9f-b585-3a07cb50260d}, !- Zone Return Air Node Name
  ,                                       !- Primary Daylighting Control Name
  ,                                       !- Fraction of Zone Controlled by Primary Daylighting Control
  ,                                       !- Secondary Daylighting Control Name
  ,                                       !- Fraction of Zone Controlled by Secondary Daylighting Control
  ,                                       !- Illuminance Map Name
  ,                                       !- Group Rendering Name
  ,                                       !- Thermostat Name
  No;                                     !- Use Ideal Air Loads

OS:Node,
  {f271cd8c-839e-48dc-b99a-868ba6535670}, !- Handle
  Node 6,                                 !- Name
  {69ec5f56-cc96-49ae-94f4-e51f7a07fa44}, !- Inlet Port
  ;                                       !- Outlet Port

OS:Connection,
  {69ec5f56-cc96-49ae-94f4-e51f7a07fa44}, !- Handle
  {6e7600a1-3fc1-402e-b191-0decdc0552a1}, !- Name
  {05325a2a-78ea-4fe3-8ed0-da360062f727}, !- Source Object
  11,                                     !- Outlet Port
  {f271cd8c-839e-48dc-b99a-868ba6535670}, !- Target Object
  2;                                      !- Inlet Port

OS:PortList,
  {3d080836-a210-44e0-aa01-580dea929b8b}, !- Handle
  {661d19ae-1918-44e7-a148-d76cd882c638}, !- Name
  {05325a2a-78ea-4fe3-8ed0-da360062f727}, !- HVAC Component
  {cf84f849-c8b7-46d8-8c13-5274fc0e7a6c}; !- Port 1

OS:PortList,
  {f9c91e7d-c372-4495-bca7-f21056a153ce}, !- Handle
  {d5f49c3d-882a-4430-8948-51a191090278}, !- Name
  {05325a2a-78ea-4fe3-8ed0-da360062f727}; !- HVAC Component

OS:Sizing:Zone,
  {78d2904c-4b80-46dd-877f-96886c4e9fd7}, !- Handle
  {05325a2a-78ea-4fe3-8ed0-da360062f727}, !- Zone or ZoneList Name
  SupplyAirTemperature,                   !- Zone Cooling Design Supply Air Temperature Input Method
  14,                                     !- Zone Cooling Design Supply Air Temperature {C}
  11.11,                                  !- Zone Cooling Design Supply Air Temperature Difference {deltaC}
  SupplyAirTemperature,                   !- Zone Heating Design Supply Air Temperature Input Method
  40,                                     !- Zone Heating Design Supply Air Temperature {C}
  11.11,                                  !- Zone Heating Design Supply Air Temperature Difference {deltaC}
  0.0085,                                 !- Zone Cooling Design Supply Air Humidity Ratio {kg-H2O/kg-air}
  0.008,                                  !- Zone Heating Design Supply Air Humidity Ratio {kg-H2O/kg-air}
  ,                                       !- Zone Heating Sizing Factor
  ,                                       !- Zone Cooling Sizing Factor
  DesignDay,                              !- Cooling Design Air Flow Method
  ,                                       !- Cooling Design Air Flow Rate {m3/s}
  ,                                       !- Cooling Minimum Air Flow per Zone Floor Area {m3/s-m2}
  ,                                       !- Cooling Minimum Air Flow {m3/s}
  ,                                       !- Cooling Minimum Air Flow Fraction
  DesignDay,                              !- Heating Design Air Flow Method
  ,                                       !- Heating Design Air Flow Rate {m3/s}
  ,                                       !- Heating Maximum Air Flow per Zone Floor Area {m3/s-m2}
  ,                                       !- Heating Maximum Air Flow {m3/s}
  ,                                       !- Heating Maximum Air Flow Fraction
  ,                                       !- Design Zone Air Distribution Effectiveness in Cooling Mode
  ,                                       !- Design Zone Air Distribution Effectiveness in Heating Mode
  No,                                     !- Account for Dedicated Outdoor Air System
  NeutralSupplyAir,                       !- Dedicated Outdoor Air System Control Strategy
  autosize,                               !- Dedicated Outdoor Air Low Setpoint Temperature for Design {C}
  autosize;                               !- Dedicated Outdoor Air High Setpoint Temperature for Design {C}

OS:ZoneHVAC:EquipmentList,
  {4475fec6-d0bd-4568-8d5c-f9c7a07dcfd2}, !- Handle
  Zone HVAC Equipment List 1,             !- Name
  {05325a2a-78ea-4fe3-8ed0-da360062f727}, !- Thermal Zone
  {5a36f3eb-c7a7-46c9-b445-66f02fe8e0fe}, !- Zone Equipment 1
  1,                                      !- Zone Equipment Cooling Sequence 1
  1;                                      !- Zone Equipment Heating or No-Load Sequence 1

! TrackingID:#[yRUb2Y]
OS:Sizing:Zone,
  {b2c322b9-4d5e-4295-b5e9-4fdba595e583}, !- Handle
  {05325a2a-78ea-4fe3-8ed0-da360062f727}, !- Zone or ZoneList Name
  SupplyAirTemperature,                   !- Zone Cooling Design Supply Air Temperature Input Method
  14,                                     !- Zone Cooling Design Supply Air Temperature {C}
  11.11,                                  !- Zone Cooling Design Supply Air Temperature Difference {deltaC}
  SupplyAirTemperature,                   !- Zone Heating Design Supply Air Temperature Input Method
  40,                                     !- Zone Heating Design Supply Air Temperature {C}
  11.11,                                  !- Zone Heating Design Supply Air Temperature Difference {deltaC}
  0.0085,                                 !- Zone Cooling Design Supply Air Humidity Ratio {kg-H2O/kg-air}
  0.008,                                  !- Zone Heating Design Supply Air Humidity Ratio {kg-H2O/kg-air}
  ,                                       !- Zone Heating Sizing Factor
  ,                                       !- Zone Cooling Sizing Factor
  DesignDay,                              !- Cooling Design Air Flow Method
  ,                                       !- Cooling Design Air Flow Rate {m3/s}
  ,                                       !- Cooling Minimum Air Flow per Zone Floor Area {m3/s-m2}
  ,                                       !- Cooling Minimum Air Flow {m3/s}
  ,                                       !- Cooling Minimum Air Flow Fraction
  DesignDay,                              !- Heating Design Air Flow Method
  ,                                       !- Heating Design Air Flow Rate {m3/s}
  ,                                       !- Heating Maximum Air Flow per Zone Floor Area {m3/s-m2}
  ,                                       !- Heating Maximum Air Flow {m3/s}
  ,                                       !- Heating Maximum Air Flow Fraction
  ,                                       !- Design Zone Air Distribution Effectiveness in Cooling Mode
  ,                                       !- Design Zone Air Distribution Effectiveness in Heating Mode
  No,                                     !- Account for Dedicated Outdoor Air System
  NeutralSupplyAir,                       !- Dedicated Outdoor Air System Control Strategy
  autosize,                               !- Dedicated Outdoor Air Low Setpoint Temperature for Design {C}
  autosize;                               !- Dedicated Outdoor Air High Setpoint Temperature for Design {C}

! TrackingID:#[aBL5JS]
OS:Coil:Heating:Water,
  {49a417f4-8c7b-46e8-9487-d630c70edf1a}, !- Handle
  Coil Heating Water 1,                   !- Name
  {260ad0b3-0f8e-426c-b999-763804ffd8e4}, !- Availability Schedule Name
  ,                                       !- U-Factor Times Area Value {W/K}
  ,                                       !- Maximum Water Flow Rate {m3/s}
  {47180bf3-124f-439b-84f3-f8718985777d}, !- Water Inlet Node Name
  {f889b963-8d75-4396-aa5a-b34e68effa0a}, !- Water Outlet Node Name
  ,                                       !- Air Inlet Node Name
  ,                                       !- Air Outlet Node Name
  ,                                       !- Performance Input Method
  ,                                       !- Rated Capacity {W}
  ,                                       !- Rated Inlet Water Temperature {C}
  ,                                       !- Rated Inlet Air Temperature {C}
  ,                                       !- Rated Outlet Water Temperature {C}
  ,                                       !- Rated Outlet Air Temperature {C}
  ;                                       !- Rated Ratio for Air and Water Convection

! TrackingID:#[yWUfvz]
OS:AirTerminal:SingleDuct:VAV:Reheat,
  {5a36f3eb-c7a7-46c9-b445-66f02fe8e0fe}, !- Handle
  Air Terminal Single Duct VAV Reheat 1,  !- Name
  {260ad0b3-0f8e-426c-b999-763804ffd8e4}, !- Availability Schedule Name
  {cf15acfc-fd58-4624-b386-6bccf86201ed}, !- Air Inlet Node Name
  AutoSize,                               !- Maximum Air Flow Rate {m3/s}
  Constant,                               !- Zone Minimum Air Flow Input Method
  0.3,                                    !- Constant Minimum Air Flow Fraction
  0,                                      !- Fixed Minimum Air Flow Rate {m3/s}
  ,                                       !- Minimum Air Flow Fraction Schedule Name
  {49a417f4-8c7b-46e8-9487-d630c70edf1a}, !- Reheat Coil Name
  AutoSize,                               !- Maximum Hot Water or Steam Flow Rate {m3/s}
  0,                                      !- Minimum Hot Water or Steam Flow Rate {m3/s}
  {dc16cc21-5956-4f30-a64c-246aaaf985ba}, !- Air Outlet Node Name
  0.001,                                  !- Convergence Tolerance
  Normal,                                 !- Damper Heating Action
  AutoSize,                               !- Maximum Flow per Zone Floor Area During Reheat {m3/s-m2}
  AutoSize,                               !- Maximum Flow Fraction During Reheat
  35,                                     !- Maximum Reheat Air Temperature {C}
  No;                                     !- Control For Outdoor Air

OS:Node,
  {33ac5e30-d1b1-4459-b5ce-0636246c60e4}, !- Handle
  Node 7,                                 !- Name
  {277f58bb-d748-4a9f-b585-3a07cb50260d}, !- Inlet Port
  {6436cfc3-915a-486d-a08d-2192638924ab}; !- Outlet Port

OS:Connection,
  {cf84f849-c8b7-46d8-8c13-5274fc0e7a6c}, !- Handle
  {0ab2c37f-ff81-4bef-9f53-355150979610}, !- Name
  {b6c47763-81b8-47c8-8bb1-dafcccc2b29b}, !- Source Object
  3,                                      !- Outlet Port
  {3d080836-a210-44e0-aa01-580dea929b8b}, !- Target Object
  3;                                      !- Inlet Port

OS:Connection,
  {277f58bb-d748-4a9f-b585-3a07cb50260d}, !- Handle
  {691e9726-5d70-45ab-9628-3b6532d20b82}, !- Name
  {05325a2a-78ea-4fe3-8ed0-da360062f727}, !- Source Object
  12,                                     !- Outlet Port
  {33ac5e30-d1b1-4459-b5ce-0636246c60e4}, !- Target Object
  2;                                      !- Inlet Port

OS:Connection,
  {6436cfc3-915a-486d-a08d-2192638924ab}, !- Handle
  {6c51d37d-8332-429b-b18c-04eb46161070}, !- Name
  {33ac5e30-d1b1-4459-b5ce-0636246c60e4}, !- Source Object
  3,                                      !- Outlet Port
  {f09dd5ce-0f13-422f-a3bf-7523687fb4cd}, !- Target Object
  3;                                      !- Inlet Port

OS:Node,
  {50d7a013-7fa1-4b84-9dbc-87366e3c9d81}, !- Handle
  Node 8,                                 !- Name
  {a739848f-7661-4679-a631-f349b0820742}, !- Inlet Port
  {cf15acfc-fd58-4624-b386-6bccf86201ed}; !- Outlet Port

OS:Connection,
  {a739848f-7661-4679-a631-f349b0820742}, !- Handle
  {e7d794ba-d63a-4297-b30e-416400aec15e}, !- Name
  {0fdab3f7-4424-42e9-aad2-801e361c7d01}, !- Source Object
  3,                                      !- Outlet Port
  {50d7a013-7fa1-4b84-9dbc-87366e3c9d81}, !- Target Object
  2;                                      !- Inlet Port

OS:Connection,
  {cf15acfc-fd58-4624-b386-6bccf86201ed}, !- Handle
  {f9561ede-4510-49aa-bfca-7fc655fafdbf}, !- Name
  {50d7a013-7fa1-4b84-9dbc-87366e3c9d81}, !- Source Object
  3,                                      !- Outlet Port
  {5a36f3eb-c7a7-46c9-b445-66f02fe8e0fe}, !- Target Object
  3;                                      !- Inlet Port

OS:Connection,
  {dc16cc21-5956-4f30-a64c-246aaaf985ba}, !- Handle
  {937839de-be91-4a7f-b435-e03e7aa29bf0}, !- Name
  {5a36f3eb-c7a7-46c9-b445-66f02fe8e0fe}, !- Source Object
  12,                                     !- Outlet Port
  {b6c47763-81b8-47c8-8bb1-dafcccc2b29b}, !- Target Object
  2;                                      !- Inlet Port

! TrackingID:#[BblmFO]
OS:ThermalZone,
  {9cae8356-bd9c-47f1-820e-c3d0ac2f7085}, !- Handle
  Thermal Zone 2,                         !- Name
  ,                                       !- Multiplier
  ,                                       !- Ceiling Height {m}
  ,                                       !- Volume {m3}
  ,                                       !- Floor Area {m2}
  ,                                       !- Zone Inside Convection Algorithm
  ,                                       !- Zone Outside Convection Algorithm
  ,                                       !- Zone Conditioning Equipment List Name
  {13818a32-daab-4778-a61e-e7032e033eba}, !- Zone Air Inlet Port List
  {3cab3827-c966-4cbb-a0bb-3e11050df5f1}, !- Zone Air Exhaust Port List
  {f9974928-176c-4597-bd8b-896e904a7fab}, !- Zone Air Node Name
  {3037d610-8642-4f52-a1f3-830ae89e4228}, !- Zone Return Air Node Name
  ,                                       !- Primary Daylighting Control Name
  ,                                       !- Fraction of Zone Controlled by Primary Daylighting Control
  ,                                       !- Secondary Daylighting Control Name
  ,                                       !- Fraction of Zone Controlled by Secondary Daylighting Control
  ,                                       !- Illuminance Map Name
  ,                                       !- Group Rendering Name
  ,                                       !- Thermostat Name
  No;                                     !- Use Ideal Air Loads

OS:Node,
  {a100ae00-36c0-4c1e-bb34-1f5d2ca00d46}, !- Handle
  Node 9,                                 !- Name
  {f9974928-176c-4597-bd8b-896e904a7fab}, !- Inlet Port
  ;                                       !- Outlet Port

OS:Connection,
  {f9974928-176c-4597-bd8b-896e904a7fab}, !- Handle
  {18148cf8-a335-407d-b433-8704ab871c9f}, !- Name
  {9cae8356-bd9c-47f1-820e-c3d0ac2f7085}, !- Source Object
  11,                                     !- Outlet Port
  {a100ae00-36c0-4c1e-bb34-1f5d2ca00d46}, !- Target Object
  2;                                      !- Inlet Port

OS:PortList,
  {13818a32-daab-4778-a61e-e7032e033eba}, !- Handle
  {bde293c3-6144-44bf-9010-c2b370031266}, !- Name
  {9cae8356-bd9c-47f1-820e-c3d0ac2f7085}, !- HVAC Component
  {db04519e-6513-4595-a653-8bd283cc72b6}; !- Port 1

OS:PortList,
  {3cab3827-c966-4cbb-a0bb-3e11050df5f1}, !- Handle
  {df893e64-a028-4b6b-bee0-a92f9a1efac7}, !- Name
  {9cae8356-bd9c-47f1-820e-c3d0ac2f7085}; !- HVAC Component

OS:Sizing:Zone,
  {932357eb-ac58-43f6-be55-035d90497570}, !- Handle
  {9cae8356-bd9c-47f1-820e-c3d0ac2f7085}, !- Zone or ZoneList Name
  SupplyAirTemperature,                   !- Zone Cooling Design Supply Air Temperature Input Method
  14,                                     !- Zone Cooling Design Supply Air Temperature {C}
  11.11,                                  !- Zone Cooling Design Supply Air Temperature Difference {deltaC}
  SupplyAirTemperature,                   !- Zone Heating Design Supply Air Temperature Input Method
  40,                                     !- Zone Heating Design Supply Air Temperature {C}
  11.11,                                  !- Zone Heating Design Supply Air Temperature Difference {deltaC}
  0.0085,                                 !- Zone Cooling Design Supply Air Humidity Ratio {kg-H2O/kg-air}
  0.008,                                  !- Zone Heating Design Supply Air Humidity Ratio {kg-H2O/kg-air}
  ,                                       !- Zone Heating Sizing Factor
  ,                                       !- Zone Cooling Sizing Factor
  DesignDay,                              !- Cooling Design Air Flow Method
  ,                                       !- Cooling Design Air Flow Rate {m3/s}
  ,                                       !- Cooling Minimum Air Flow per Zone Floor Area {m3/s-m2}
  ,                                       !- Cooling Minimum Air Flow {m3/s}
  ,                                       !- Cooling Minimum Air Flow Fraction
  DesignDay,                              !- Heating Design Air Flow Method
  ,                                       !- Heating Design Air Flow Rate {m3/s}
  ,                                       !- Heating Maximum Air Flow per Zone Floor Area {m3/s-m2}
  ,                                       !- Heating Maximum Air Flow {m3/s}
  ,                                       !- Heating Maximum Air Flow Fraction
  ,                                       !- Design Zone Air Distribution Effectiveness in Cooling Mode
  ,                                       !- Design Zone Air Distribution Effectiveness in Heating Mode
  No,                                     !- Account for Dedicated Outdoor Air System
  NeutralSupplyAir,                       !- Dedicated Outdoor Air System Control Strategy
  autosize,                               !- Dedicated Outdoor Air Low Setpoint Temperature for Design {C}
  autosize;                               !- Dedicated Outdoor Air High Setpoint Temperature for Design {C}

OS:ZoneHVAC:EquipmentList,
  {8cd11330-9b15-4449-998d-3a24f817a227}, !- Handle
  Zone HVAC Equipment List 2,             !- Name
  {9cae8356-bd9c-47f1-820e-c3d0ac2f7085}, !- Thermal Zone
  {7e63c868-5d31-46ab-ae52-806d32ec956b}, !- Zone Equipment 1
  1,                                      !- Zone Equipment Cooling Sequence 1
  1;                                      !- Zone Equipment Heating or No-Load Sequence 1

! TrackingID:#[bAXgty]
OS:Sizing:Zone,
  {bf788dfa-365d-43ee-b74d-57eee7864944}, !- Handle
  {9cae8356-bd9c-47f1-820e-c3d0ac2f7085}, !- Zone or ZoneList Name
  SupplyAirTemperature,                   !- Zone Cooling Design Supply Air Temperature Input Method
  14,                                     !- Zone Cooling Design Supply Air Temperature {C}
  11.11,                                  !- Zone Cooling Design Supply Air Temperature Difference {deltaC}
  SupplyAirTemperature,                   !- Zone Heating Design Supply Air Temperature Input Method