
OS:Version,
  {f2ecc3d8-d01f-4292-89fc-8baf2ffdd049}, !- Handle
  2.4.0;                                  !- Version Identifier

OS:AirLoopHVAC,
  {c4bd7fc2-0380-4fb3-a51c-6b5dc5cb81e8}, !- Handle
  Air Loop HVAC 1,                        !- Name
  ,                                       !- Controller List Name
  {4379f64d-8343-45d9-aaea-f7ee52335a44}, !- Availability Schedule
  {3d8f8ab0-ced2-4c37-9e6d-fc9c06aeeb55}, !- Availability Manager List Name
  AutoSize,                               !- Design Supply Air Flow Rate {m3/s}
  ,                                       !- Branch List Name
  ,                                       !- Connector List Name
  {584f2052-2b9f-47c7-ac16-fd3198218322}, !- Supply Side Inlet Node Name
  {b6f0ac69-71e2-4fcf-81e1-98f598dad314}, !- Demand Side Outlet Node Name
  {b37cfe2d-b11d-4d10-a538-89aabd135b84}, !- Demand Side Inlet Node A
  {e3aadeb6-7978-4451-9b9f-d9b70eeed1e5}, !- Supply Side Outlet Node A
  ,                                       !- Demand Side Inlet Node B
  ,                                       !- Supply Side Outlet Node B
  ,                                       !- Return Air Bypass Flow Temperature Setpoint Schedule Name
  {1f47fb11-a243-45b9-ad5e-948898f10548}, !- Demand Mixer Name
  {ea8755ae-3abc-4d74-add6-ff3c8ba830c3}, !- Demand Splitter A Name
  ,                                       !- Demand Splitter B Name
  ;                                       !- Supply Splitter Name

OS:Node,
  {28b378fc-c6c3-4d15-805a-d3a5a1b27d31}, !- Handle
  Node 1,                                 !- Name
  {584f2052-2b9f-47c7-ac16-fd3198218322}, !- Inlet Port
  {db610efe-a397-4e54-953c-1aaef4299df7}; !- Outlet Port

OS:Node,
  {8598a8a8-5df7-4e61-81a4-e97cb75724dd}, !- Handle
  Node 2,                                 !- Name
  {945dd304-e617-42f5-b798-fa3effbc7cdb}, !- Inlet Port
  {e3aadeb6-7978-4451-9b9f-d9b70eeed1e5}; !- Outlet Port

OS:Connection,
  {584f2052-2b9f-47c7-ac16-fd3198218322}, !- Handle
  {ec8b9715-3694-482b-838f-cb52fd0d72d9}, !- Name
  {c4bd7fc2-0380-4fb3-a51c-6b5dc5cb81e8}, !- Source Object
  8,                                      !- Outlet Port
  {28b378fc-c6c3-4d15-805a-d3a5a1b27d31}, !- Target Object
  2;                                      !- Inlet Port

OS:Connection,
  {e3aadeb6-7978-4451-9b9f-d9b70eeed1e5}, !- Handle
  {deba4c41-1844-45f4-889f-0fdbef0abef7}, !- Name
  {8598a8a8-5df7-4e61-81a4-e97cb75724dd}, !- Source Object
  3,                                      !- Outlet Port
  {c4bd7fc2-0380-4fb3-a51c-6b5dc5cb81e8}, !- Target Object
  11;                                     !- Inlet Port

OS:Node,
  {cccdeded-ecee-49df-ae03-20f6554780fd}, !- Handle
  Node 3,                                 !- Name
  {b37cfe2d-b11d-4d10-a538-89aabd135b84}, !- Inlet Port
  {fc900ab4-4159-44c0-96c4-14e6544e1caa}; !- Outlet Port

OS:Node,
  {d2b13b36-73c5-44e8-9614-9d73fc63a68a}, !- Handle
  Node 4,                                 !- Name
  {44a35040-6b8a-49ae-b38e-a040f403ee3f}, !- Inlet Port
  {b6f0ac69-71e2-4fcf-81e1-98f598dad314}; !- Outlet Port

OS:Node,
  {d4b68f4e-31ee-41ce-8e1e-f107bafa2329}, !- Handle
  Node 5,                                 !- Name
  {e20479ac-4127-47bd-883c-b21a4379b3e8}, !- Inlet Port
  {71fd916e-415c-46ae-9817-9ff22f9775f3}; !- Outlet Port

OS:Connection,
  {b37cfe2d-b11d-4d10-a538-89aabd135b84}, !- Handle
  {508e1428-f957-4dba-a78d-a20a799581e8}, !- Name
  {c4bd7fc2-0380-4fb3-a51c-6b5dc5cb81e8}, !- Source Object
  10,                                     !- Outlet Port
  {cccdeded-ecee-49df-ae03-20f6554780fd}, !- Target Object
  2;                                      !- Inlet Port

OS:Connection,
  {b6f0ac69-71e2-4fcf-81e1-98f598dad314}, !- Handle
  {e7a10a52-6324-4b57-8cae-935bf0556911}, !- Name
  {d2b13b36-73c5-44e8-9614-9d73fc63a68a}, !- Source Object
  3,                                      !- Outlet Port
  {c4bd7fc2-0380-4fb3-a51c-6b5dc5cb81e8}, !- Target Object
  9;                                      !- Inlet Port

OS:AirLoopHVAC:ZoneSplitter,
  {ea8755ae-3abc-4d74-add6-ff3c8ba830c3}, !- Handle
  Air Loop HVAC Zone Splitter 1,          !- Name
  {fc900ab4-4159-44c0-96c4-14e6544e1caa}, !- Inlet Node Name
  {e20479ac-4127-47bd-883c-b21a4379b3e8}; !- Outlet Node Name 1

OS:AirLoopHVAC:ZoneMixer,
  {1f47fb11-a243-45b9-ad5e-948898f10548}, !- Handle
  Air Loop HVAC Zone Mixer 1,             !- Name
  {44a35040-6b8a-49ae-b38e-a040f403ee3f}, !- Outlet Node Name
  {71fd916e-415c-46ae-9817-9ff22f9775f3}; !- Inlet Node Name 1

OS:Connection,
  {fc900ab4-4159-44c0-96c4-14e6544e1caa}, !- Handle
  {1d5c2023-80d1-4868-bcb8-1a598988ce28}, !- Name
  {cccdeded-ecee-49df-ae03-20f6554780fd}, !- Source Object
  3,                                      !- Outlet Port
  {ea8755ae-3abc-4d74-add6-ff3c8ba830c3}, !- Target Object
  2;                                      !- Inlet Port

OS:Connection,
  {e20479ac-4127-47bd-883c-b21a4379b3e8}, !- Handle
  {cb343749-0410-4f67-bfbe-ce07b15f82b6}, !- Name
  {ea8755ae-3abc-4d74-add6-ff3c8ba830c3}, !- Source Object
  3,                                      !- Outlet Port
  {d4b68f4e-31ee-41ce-8e1e-f107bafa2329}, !- Target Object
  2;                                      !- Inlet Port

OS:Connection,
  {71fd916e-415c-46ae-9817-9ff22f9775f3}, !- Handle
  {17d9fc73-e78a-417d-b5cf-776433de748a}, !- Name
  {d4b68f4e-31ee-41ce-8e1e-f107bafa2329}, !- Source Object
  3,                                      !- Outlet Port
  {1f47fb11-a243-45b9-ad5e-948898f10548}, !- Target Object
  3;                                      !- Inlet Port

OS:Connection,
  {44a35040-6b8a-49ae-b38e-a040f403ee3f}, !- Handle
  {9b1a5cef-cb24-4136-8cfc-2caec9ce179e}, !- Name
  {1f47fb11-a243-45b9-ad5e-948898f10548}, !- Source Object
  2,                                      !- Outlet Port
  {d2b13b36-73c5-44e8-9614-9d73fc63a68a}, !- Target Object
  2;                                      !- Inlet Port

OS:Sizing:System,
  {1bd51e82-264f-4cc6-91fd-b448a966ea38}, !- Handle
  {c4bd7fc2-0380-4fb3-a51c-6b5dc5cb81e8}, !- AirLoop Name
  Sensible,                               !- Type of Load to Size On
  Autosize,                               !- Design Outdoor Air Flow Rate {m3/s}
  0.3,                                    !- Minimum System Air Flow Ratio
  7,                                      !- Preheat Design Temperature {C}
  0.008,                                  !- Preheat Design Humidity Ratio {kg-H2O/kg-Air}
  12.8,                                   !- Precool Design Temperature {C}
  0.008,                                  !- Precool Design Humidity Ratio {kg-H2O/kg-Air}
  12.8,                                   !- Central Cooling Design Supply Air Temperature {C}
  16.7,                                   !- Central Heating Design Supply Air Temperature {C}
  NonCoincident,                          !- Sizing Option
  Yes,                                    !- 100% Outdoor Air in Cooling
  Yes,                                    !- 100% Outdoor Air in Heating
  0.0085,                                 !- Central Cooling Design Supply Air Humidity Ratio {kg-H2O/kg-Air}
  0.008,                                  !- Central Heating Design Supply Air Humidity Ratio {kg-H2O/kg-Air}
  DesignDay,                              !- Cooling Design Air Flow Method
  0,                                      !- Cooling Design Air Flow Rate {m3/s}
  DesignDay,                              !- Heating Design Air Flow Method
  0,                                      !- Heating Design Air Flow Rate {m3/s}
  ZoneSum,                                !- System Outdoor Air Method
  1,                                      !- Zone Maximum Outdoor Air Fraction {dimensionless}
  0.0099676501,                           !- Cooling Supply Air Flow Rate Per Floor Area {m3/s-m2}
  1,                                      !- Cooling Fraction of Autosized Cooling Supply Air Flow Rate
  3.9475456e-005,                         !- Cooling Supply Air Flow Rate Per Unit Cooling Capacity {m3/s-W}
  0.0099676501,                           !- Heating Supply Air Flow Rate Per Floor Area {m3/s-m2}
  1,                                      !- Heating Fraction of Autosized Heating Supply Air Flow Rate
  1,                                      !- Heating Fraction of Autosized Cooling Supply Air Flow Rate
  3.1588213e-005,                         !- Heating Supply Air Flow Rate Per Unit Heating Capacity {m3/s-W}
  CoolingDesignCapacity,                  !- Cooling Design Capacity Method
  autosize,                               !- Cooling Design Capacity {W}
  234.7,                                  !- Cooling Design Capacity Per Floor Area {W/m2}
  1,                                      !- Fraction of Autosized Cooling Design Capacity
  HeatingDesignCapacity,                  !- Heating Design Capacity Method
  autosize,                               !- Heating Design Capacity {W}
  157,                                    !- Heating Design Capacity Per Floor Area {W/m2}
  1,                                      !- Fraction of Autosized Heating Design Capacity
  OnOff;                                  !- Central Cooling Capacity Control Method

OS:Schedule:Constant,
  {4379f64d-8343-45d9-aaea-f7ee52335a44}, !- Handle
  Always On Discrete,                     !- Name
  {15f6bde0-c173-4c9a-beff-ab8982c2b502}, !- Schedule Type Limits Name
  1;                                      !- Value

OS:ScheduleTypeLimits,
  {15f6bde0-c173-4c9a-beff-ab8982c2b502}, !- Handle
  OnOff,                                  !- Name
  0,                                      !- Lower Limit Value
  1,                                      !- Upper Limit Value
  Discrete,                               !- Numeric Type
  Availability;                           !- Unit Type

OS:AvailabilityManagerAssignmentList,
  {3d8f8ab0-ced2-4c37-9e6d-fc9c06aeeb55}, !- Handle
  Air Loop HVAC 1 AvailabilityManagerAssignmentList; !- Name

OS:Coil:Heating:Water,
  {7de35743-e443-4bc4-b756-565685140086}, !- Handle
  Coil Heating Water 1[#If4REd],          !- Name
  {4379f64d-8343-45d9-aaea-f7ee52335a44}, !- Availability Schedule Name
  ,                                       !- U-Factor Times Area Value {W/K}
  ,                                       !- Maximum Water Flow Rate {m3/s}
  ,                                       !- Water Inlet Node Name
  ,                                       !- Water Outlet Node Name
  {db610efe-a397-4e54-953c-1aaef4299df7}, !- Air Inlet Node Name
  {945dd304-e617-42f5-b798-fa3effbc7cdb}, !- Air Outlet Node Name
  ,                                       !- Performance Input Method
  ,                                       !- Rated Capacity {W}
  ,                                       !- Rated Inlet Water Temperature {C}
  ,                                       !- Rated Inlet Air Temperature {C}
  ,                                       !- Rated Outlet Water Temperature {C}
  ,                                       !- Rated Outlet Air Temperature {C}
  ;                                       !- Rated Ratio for Air and Water Convection

OS:Connection,
  {db610efe-a397-4e54-953c-1aaef4299df7}, !- Handle
  {12fb6b5c-026c-4f0b-a3f9-183c7fd8a8aa}, !- Name
  {28b378fc-c6c3-4d15-805a-d3a5a1b27d31}, !- Source Object
  3,                                      !- Outlet Port
  {7de35743-e443-4bc4-b756-565685140086}, !- Target Object
  7;                                      !- Inlet Port

OS:Connection,
  {945dd304-e617-42f5-b798-fa3effbc7cdb}, !- Handle
  {3483028d-6aeb-4eee-883c-230e85d4128e}, !- Name
  {7de35743-e443-4bc4-b756-565685140086}, !- Source Object
  8,                                      !- Outlet Port
  {8598a8a8-5df7-4e61-81a4-e97cb75724dd}, !- Target Object
  2;                                      !- Inlet Port

