
OS:Version,
  {c6fa7a32-9ef7-47a2-8280-ddfd2107a265}, !- Handle
  2.4.0;                                  !- Version Identifier

! TrackingID:#[WexImj]
OS:PlantLoop,
  {0267f2d4-ee1c-4450-9402-214f2fad41fc}, !- Handle
  Plant Loop 1,                           !- Name
  ,                                       !- Fluid Type
  0,                                      !- Glycol Concentration
  ,                                       !- User Defined Fluid Type
  ,                                       !- Plant Equipment Operation Heating Load
  ,                                       !- Plant Equipment Operation Cooling Load
  ,                                       !- Primary Plant Equipment Operation Scheme
  {ae8f1289-b2ba-41c2-aa04-b8890ac39fad}, !- Loop Temperature Setpoint Node Name
  ,                                       !- Maximum Loop Temperature {C}
  ,                                       !- Minimum Loop Temperature {C}
  ,                                       !- Maximum Loop Flow Rate {m3/s}
  ,                                       !- Minimum Loop Flow Rate {m3/s}
  Autocalculate,                          !- Plant Loop Volume {m3}
  {a124b9bf-9cbe-4f92-808e-8c3c07fff2a6}, !- Plant Side Inlet Node Name
  {eac85361-c07c-4d47-88ed-f1a1c300eebf}, !- Plant Side Outlet Node Name
  ,                                       !- Plant Side Branch List Name
  {fcc4baab-8952-4624-bb3d-e3bf4b841a56}, !- Demand Side Inlet Node Name
  {828c5e80-2100-4f62-a7b3-715d04457a37}, !- Demand Side Outlet Node Name
  ,                                       !- Demand Side Branch List Name
  ,                                       !- Demand Side Connector List Name
  Optimal,                                !- Load Distribution Scheme
  {c77912d0-2aeb-441e-8005-2399c5788704}, !- Availability Manager List Name
  ,                                       !- Plant Loop Demand Calculation Scheme
  ,                                       !- Common Pipe Simulation
  ,                                       !- Pressure Simulation Type
  ,                                       !- Plant Equipment Operation Heating Load Schedule
  ,                                       !- Plant Equipment Operation Cooling Load Schedule
  ,                                       !- Primary Plant Equipment Operation Scheme Schedule
  ,                                       !- Component Setpoint Operation Scheme Schedule
  {cc45534a-e9fe-43f5-859e-e7a78897ea1d}, !- Demand Mixer Name
  {2668f20b-ed86-46e9-838e-1e3a9611a22a}, !- Demand Splitter Name
  {67a8bda9-3be6-4cff-8d2d-0edee4301ba0}, !- Supply Mixer Name
  {98e1e924-fec9-417a-a50c-5ba874879e08}; !- Supply Splitter Name

OS:Sizing:Plant,
  {351e0e72-c0f7-4bed-9d34-73766fe0da6d}, !- Handle
  {0267f2d4-ee1c-4450-9402-214f2fad41fc}, !- Plant or Condenser Loop Name
  Heating,                                !- Loop Type
  82,                                     !- Design Loop Exit Temperature {C}
  11,                                     !- Loop Design Temperature Difference {deltaC}
  NonCoincident,                          !- Sizing Option
  1,                                      !- Zone Timesteps in Averaging Window
  None;                                   !- Coincident Sizing Factor Mode

OS:Node,
  {509b2582-d1d5-4dde-8488-8595c8588a86}, !- Handle
  Node 1,                                 !- Name
  {a124b9bf-9cbe-4f92-808e-8c3c07fff2a6}, !- Inlet Port
  {8cb39ec3-faa2-47cb-859c-775100344444}; !- Outlet Port

OS:Node,
  {ae8f1289-b2ba-41c2-aa04-b8890ac39fad}, !- Handle
  Node 2,                                 !- Name
  {16bb340a-2594-42d8-a50b-bdbcaa0c0cf0}, !- Inlet Port
  {eac85361-c07c-4d47-88ed-f1a1c300eebf}; !- Outlet Port

OS:Node,
  {38b0ca77-0048-4b4f-bcae-70f490f3ee76}, !- Handle
  Node 3,                                 !- Name
  {3249da78-b91c-4545-823a-527c9a9907ab}, !- Inlet Port
  {f39a545f-32a3-432f-90c5-81ae215dac0d}; !- Outlet Port

OS:Connector:Mixer,
  {67a8bda9-3be6-4cff-8d2d-0edee4301ba0}, !- Handle
  Connector Mixer 1,                      !- Name
  {16bb340a-2594-42d8-a50b-bdbcaa0c0cf0}, !- Outlet Branch Name
  {f39a545f-32a3-432f-90c5-81ae215dac0d}; !- Inlet Branch Name 1

OS:Connector:Splitter,
  {98e1e924-fec9-417a-a50c-5ba874879e08}, !- Handle
  Connector Splitter 1,                   !- Name
  {8cb39ec3-faa2-47cb-859c-775100344444}, !- Inlet Branch Name
  {3249da78-b91c-4545-823a-527c9a9907ab}; !- Outlet Branch Name 1

OS:Connection,
  {a124b9bf-9cbe-4f92-808e-8c3c07fff2a6}, !- Handle
  {e867ae1b-1532-4752-8a90-0444a5847809}, !- Name
  {0267f2d4-ee1c-4450-9402-214f2fad41fc}, !- Source Object
  14,                                     !- Outlet Port
  {509b2582-d1d5-4dde-8488-8595c8588a86}, !- Target Object
  2;                                      !- Inlet Port

OS:Connection,
  {8cb39ec3-faa2-47cb-859c-775100344444}, !- Handle
  {4817ea0b-336f-4bd0-8e92-ad406f29623b}, !- Name
  {509b2582-d1d5-4dde-8488-8595c8588a86}, !- Source Object
  3,                                      !- Outlet Port
  {98e1e924-fec9-417a-a50c-5ba874879e08}, !- Target Object
  2;                                      !- Inlet Port

OS:Connection,
  {3249da78-b91c-4545-823a-527c9a9907ab}, !- Handle
  {f92c10f2-4d20-41c4-b8dd-fd6884d22cea}, !- Name
  {98e1e924-fec9-417a-a50c-5ba874879e08}, !- Source Object
  3,                                      !- Outlet Port
  {38b0ca77-0048-4b4f-bcae-70f490f3ee76}, !- Target Object
  2;                                      !- Inlet Port

OS:Connection,
  {f39a545f-32a3-432f-90c5-81ae215dac0d}, !- Handle
  {c52cbe51-cfe8-4f29-92da-4e8d26602342}, !- Name
  {38b0ca77-0048-4b4f-bcae-70f490f3ee76}, !- Source Object
  3,                                      !- Outlet Port
  {67a8bda9-3be6-4cff-8d2d-0edee4301ba0}, !- Target Object
  3;                                      !- Inlet Port

OS:Connection,
  {16bb340a-2594-42d8-a50b-bdbcaa0c0cf0}, !- Handle
  {52b65ad0-67dc-4372-a294-6b1ed8e7f8a2}, !- Name
  {67a8bda9-3be6-4cff-8d2d-0edee4301ba0}, !- Source Object
  2,                                      !- Outlet Port
  {ae8f1289-b2ba-41c2-aa04-b8890ac39fad}, !- Target Object
  2;                                      !- Inlet Port

OS:Connection,
  {eac85361-c07c-4d47-88ed-f1a1c300eebf}, !- Handle
  {ca16db67-0a02-4561-8193-b388be81a480}, !- Name
  {ae8f1289-b2ba-41c2-aa04-b8890ac39fad}, !- Source Object
  3,                                      !- Outlet Port
  {0267f2d4-ee1c-4450-9402-214f2fad41fc}, !- Target Object
  15;                                     !- Inlet Port

OS:Node,
  {04fb8636-1c18-4d25-b6c6-f37b0a306144}, !- Handle
  Node 4,                                 !- Name
  {fcc4baab-8952-4624-bb3d-e3bf4b841a56}, !- Inlet Port
  {495a7867-6bbf-4dc6-a5ca-a5e249cea382}; !- Outlet Port

OS:Node,
  {db09a2eb-bc12-4abc-85d2-953ba5f6ddfe}, !- Handle
  Node 5,                                 !- Name
  {4cded644-a356-4ef3-a77b-f99a463777e0}, !- Inlet Port
  {828c5e80-2100-4f62-a7b3-715d04457a37}; !- Outlet Port

OS:Node,
  {9f36e21c-3be4-4220-8c8e-1f13b83215db}, !- Handle
  Node 6,                                 !- Name
  {92e889bb-7671-49e4-8f59-69ef3b632cf5}, !- Inlet Port
  {e483c5bb-9e3e-4cb2-8389-1d8ee110b1af}; !- Outlet Port

OS:Connector:Mixer,
  {cc45534a-e9fe-43f5-859e-e7a78897ea1d}, !- Handle
  Connector Mixer 2,                      !- Name
  {4cded644-a356-4ef3-a77b-f99a463777e0}, !- Outlet Branch Name
  {e483c5bb-9e3e-4cb2-8389-1d8ee110b1af}; !- Inlet Branch Name 1

OS:Connector:Splitter,
  {2668f20b-ed86-46e9-838e-1e3a9611a22a}, !- Handle
  Connector Splitter 2,                   !- Name
  {495a7867-6bbf-4dc6-a5ca-a5e249cea382}, !- Inlet Branch Name
  {92e889bb-7671-49e4-8f59-69ef3b632cf5}; !- Outlet Branch Name 1

OS:Connection,
  {fcc4baab-8952-4624-bb3d-e3bf4b841a56}, !- Handle
  {402a3d51-9cf4-4b7f-b954-b005eea80ca3}, !- Name
  {0267f2d4-ee1c-4450-9402-214f2fad41fc}, !- Source Object
  17,                                     !- Outlet Port
  {04fb8636-1c18-4d25-b6c6-f37b0a306144}, !- Target Object
  2;                                      !- Inlet Port

OS:Connection,
  {495a7867-6bbf-4dc6-a5ca-a5e249cea382}, !- Handle
  {405ac6a9-2694-4959-aa4d-c1a397dc0371}, !- Name
  {04fb8636-1c18-4d25-b6c6-f37b0a306144}, !- Source Object
  3,                                      !- Outlet Port
  {2668f20b-ed86-46e9-838e-1e3a9611a22a}, !- Target Object
  2;                                      !- Inlet Port

OS:Connection,
  {92e889bb-7671-49e4-8f59-69ef3b632cf5}, !- Handle
  {8836c0b7-5106-4ccf-b426-341bdcbd96a8}, !- Name
  {2668f20b-ed86-46e9-838e-1e3a9611a22a}, !- Source Object
  3,                                      !- Outlet Port
  {9f36e21c-3be4-4220-8c8e-1f13b83215db}, !- Target Object
  2;                                      !- Inlet Port

OS:Connection,
  {e483c5bb-9e3e-4cb2-8389-1d8ee110b1af}, !- Handle
  {51d920da-7009-4ff3-a9ff-592575a8e745}, !- Name
  {9f36e21c-3be4-4220-8c8e-1f13b83215db}, !- Source Object
  3,                                      !- Outlet Port
  {cc45534a-e9fe-43f5-859e-e7a78897ea1d}, !- Target Object
  3;                                      !- Inlet Port

OS:Connection,
  {4cded644-a356-4ef3-a77b-f99a463777e0}, !- Handle
  {f05202a5-d1e5-473c-b30f-4ae8c5df94b3}, !- Name
  {cc45534a-e9fe-43f5-859e-e7a78897ea1d}, !- Source Object
  2,                                      !- Outlet Port
  {db09a2eb-bc12-4abc-85d2-953ba5f6ddfe}, !- Target Object
  2;                                      !- Inlet Port

OS:Connection,
  {828c5e80-2100-4f62-a7b3-715d04457a37}, !- Handle
  {a4667cf4-b776-4a00-8a38-e4436677c683}, !- Name
  {db09a2eb-bc12-4abc-85d2-953ba5f6ddfe}, !- Source Object
  3,                                      !- Outlet Port
  {0267f2d4-ee1c-4450-9402-214f2fad41fc}, !- Target Object
  18;                                     !- Inlet Port

OS:AvailabilityManagerAssignmentList,
  {c77912d0-2aeb-441e-8005-2399c5788704}, !- Handle
  Plant Loop 1 AvailabilityManagerAssignmentList; !- Name

! TrackingID:#[Sjm7rD]
OS:Sizing:Plant,
  {fe750c6a-54a7-435c-8861-050d055a98eb}, !- Handle
  {0267f2d4-ee1c-4450-9402-214f2fad41fc}, !- Plant or Condenser Loop Name
  Cooling,                                !- Loop Type
  82,                                     !- Design Loop Exit Temperature {C}
  11,                                     !- Loop Design Temperature Difference {deltaC}
  NonCoincident,                          !- Sizing Option
  1,                                      !- Zone Timesteps in Averaging Window
  None;                                   !- Coincident Sizing Factor Mode

