
OS:Version,
  {013ffa73-211e-4a0e-84bd-6f30ef5396ae}, !- Handle
  2.4.0;                                  !- Version Identifier

! TrackingID:#[ppIggz]
OS:PlantLoop,
  {f2807b04-6fcc-4dcd-b052-224d235d6e19}, !- Handle
  Plant Loop 1,                           !- Name
  Water,                                  !- Fluid Type
  0,                                      !- Glycol Concentration
  ,                                       !- User Defined Fluid Type
  ,                                       !- Plant Equipment Operation Heating Load
  ,                                       !- Plant Equipment Operation Cooling Load
  ,                                       !- Primary Plant Equipment Operation Scheme
  {0d975093-4c1f-47b9-8b2c-2f2c1488e31f}, !- Loop Temperature Setpoint Node Name
  ,                                       !- Maximum Loop Temperature {C}
  ,                                       !- Minimum Loop Temperature {C}
  ,                                       !- Maximum Loop Flow Rate {m3/s}
  ,                                       !- Minimum Loop Flow Rate {m3/s}
  Autocalculate,                          !- Plant Loop Volume {m3}
  {5ff4f7ba-4e3a-4015-b642-9252a978694d}, !- Plant Side Inlet Node Name
  {85cda0dc-0fd7-4d14-a7d8-03c87770253e}, !- Plant Side Outlet Node Name
  ,                                       !- Plant Side Branch List Name
  {7ae9469d-a509-4450-aa7b-aad0f61534f9}, !- Demand Side Inlet Node Name
  {99f86449-492f-487b-8218-e5b2e5b8c4c9}, !- Demand Side Outlet Node Name
  ,                                       !- Demand Side Branch List Name
  ,                                       !- Demand Side Connector List Name
  Optimal,                                !- Load Distribution Scheme
  {bfffbe55-d571-49c0-82c8-78afe6c4c705}, !- Availability Manager List Name
  ,                                       !- Plant Loop Demand Calculation Scheme
  ,                                       !- Common Pipe Simulation
  ,                                       !- Pressure Simulation Type
  ,                                       !- Plant Equipment Operation Heating Load Schedule
  ,                                       !- Plant Equipment Operation Cooling Load Schedule
  ,                                       !- Primary Plant Equipment Operation Scheme Schedule
  ,                                       !- Component Setpoint Operation Scheme Schedule
  {8446e8df-0f72-4817-ab47-6b9b279954df}, !- Demand Mixer Name
  {ee955e41-bc6b-42b4-86af-e033a84b9974}, !- Demand Splitter Name
  {4f4cbf27-e90b-4a68-bcb8-6a0fbc392dac}, !- Supply Mixer Name
  {218824d9-dc29-4cff-a32b-b4d2b5249712}; !- Supply Splitter Name

OS:Sizing:Plant,
  {38484fbe-4229-4a3c-872d-fd41d745d6c3}, !- Handle
  {f2807b04-6fcc-4dcd-b052-224d235d6e19}, !- Plant or Condenser Loop Name
  Heating,                                !- Loop Type
  82,                                     !- Design Loop Exit Temperature {C}
  11,                                     !- Loop Design Temperature Difference {deltaC}
  NonCoincident,                          !- Sizing Option
  1,                                      !- Zone Timesteps in Averaging Window
  None;                                   !- Coincident Sizing Factor Mode

OS:Node,
  {995e7c67-1a57-4830-9fe4-7ef3491a6a22}, !- Handle
  Node 1,                                 !- Name
  {5ff4f7ba-4e3a-4015-b642-9252a978694d}, !- Inlet Port
  {4fd9748c-9709-47b5-a095-4fa21ef93428}; !- Outlet Port

OS:Node,
  {0d975093-4c1f-47b9-8b2c-2f2c1488e31f}, !- Handle
  Node 2,                                 !- Name
  {28646d57-f93d-4c0d-a647-f38ca6680820}, !- Inlet Port
  {85cda0dc-0fd7-4d14-a7d8-03c87770253e}; !- Outlet Port

OS:Node,
  {0039e1ca-6bb6-49fc-bbe6-461ced2750d7}, !- Handle
  Node 3,                                 !- Name
  {4f3cd914-aa44-4dc5-877f-94ea236998bc}, !- Inlet Port
  {b6b2662a-03db-4bbf-99aa-91dda7ec5790}; !- Outlet Port

OS:Connector:Mixer,
  {4f4cbf27-e90b-4a68-bcb8-6a0fbc392dac}, !- Handle
  Connector Mixer 1,                      !- Name
  {28646d57-f93d-4c0d-a647-f38ca6680820}, !- Outlet Branch Name
  {8b1d28f0-4db6-42c3-b754-53b082cccc98}, !- Inlet Branch Name 1
  {53db555a-4f04-4472-8e44-97d43a5908dd}, !- Inlet Branch Name 2
  {be2ad5a8-e40e-4493-84a2-29b591d721d5}, !- Inlet Branch Name 3
  {9d6ba12d-5cbe-461c-af88-7d6e1c8f3dd4}; !- Inlet Branch Name 4

OS:Connector:Splitter,
  {218824d9-dc29-4cff-a32b-b4d2b5249712}, !- Handle
  Connector Splitter 1,                   !- Name
  {4fd9748c-9709-47b5-a095-4fa21ef93428}, !- Inlet Branch Name
  {4f3cd914-aa44-4dc5-877f-94ea236998bc}, !- Outlet Branch Name 1
  {833953d5-23ca-4562-a649-cba5f0d08aac}, !- Outlet Branch Name 2
  {77abf31d-f578-440f-8cbc-073458af2cb0}, !- Outlet Branch Name 3
  {b0a30563-db72-4f20-9fa8-fc69307f94e4}; !- Outlet Branch Name 4

OS:Connection,
  {5ff4f7ba-4e3a-4015-b642-9252a978694d}, !- Handle
  {24ede843-b654-4fa1-9077-32ce8ece2f7c}, !- Name
  {f2807b04-6fcc-4dcd-b052-224d235d6e19}, !- Source Object
  14,                                     !- Outlet Port
  {995e7c67-1a57-4830-9fe4-7ef3491a6a22}, !- Target Object
  2;                                      !- Inlet Port

OS:Connection,
  {4fd9748c-9709-47b5-a095-4fa21ef93428}, !- Handle
  {ea9ffe1e-fe5d-4772-aad1-74e6709f51ab}, !- Name
  {995e7c67-1a57-4830-9fe4-7ef3491a6a22}, !- Source Object
  3,                                      !- Outlet Port
  {218824d9-dc29-4cff-a32b-b4d2b5249712}, !- Target Object
  2;                                      !- Inlet Port

OS:Connection,
  {4f3cd914-aa44-4dc5-877f-94ea236998bc}, !- Handle
  {b44f2dbf-f2d7-4061-bdfc-4e6342a8fe02}, !- Name
  {218824d9-dc29-4cff-a32b-b4d2b5249712}, !- Source Object
  3,                                      !- Outlet Port
  {0039e1ca-6bb6-49fc-bbe6-461ced2750d7}, !- Target Object
  2;                                      !- Inlet Port

OS:Connection,
  {28646d57-f93d-4c0d-a647-f38ca6680820}, !- Handle
  {44df2d59-a4d5-4e52-9d07-0b6946f36b6e}, !- Name
  {4f4cbf27-e90b-4a68-bcb8-6a0fbc392dac}, !- Source Object
  2,                                      !- Outlet Port
  {0d975093-4c1f-47b9-8b2c-2f2c1488e31f}, !- Target Object
  2;                                      !- Inlet Port

OS:Connection,
  {85cda0dc-0fd7-4d14-a7d8-03c87770253e}, !- Handle
  {864ea8df-217a-43ed-9946-94c724247caf}, !- Name
  {0d975093-4c1f-47b9-8b2c-2f2c1488e31f}, !- Source Object
  3,                                      !- Outlet Port
  {f2807b04-6fcc-4dcd-b052-224d235d6e19}, !- Target Object
  15;                                     !- Inlet Port

OS:Node,
  {37784503-a496-4dd4-a05b-77fa605c640a}, !- Handle
  Node 4,                                 !- Name
  {7ae9469d-a509-4450-aa7b-aad0f61534f9}, !- Inlet Port
  {bc3475c9-84e4-414c-a5e1-88d901b85b85}; !- Outlet Port

OS:Node,
  {b2dcc6b9-22e9-46c8-bb4f-5a551596eb81}, !- Handle
  Node 5,                                 !- Name
  {124304e1-e920-4495-b20d-784155eb6d71}, !- Inlet Port
  {99f86449-492f-487b-8218-e5b2e5b8c4c9}; !- Outlet Port

OS:Node,
  {97f8ce54-d7ee-4112-8140-946d37dda438}, !- Handle
  Node 6,                                 !- Name
  {502b903b-f41c-48db-9b5f-f473d0e5d6da}, !- Inlet Port
  {5709592a-b58a-46e6-9b31-6971c6eacadb}; !- Outlet Port

OS:Connector:Mixer,
  {8446e8df-0f72-4817-ab47-6b9b279954df}, !- Handle
  Connector Mixer 2,                      !- Name
  {124304e1-e920-4495-b20d-784155eb6d71}, !- Outlet Branch Name
  {5709592a-b58a-46e6-9b31-6971c6eacadb}; !- Inlet Branch Name 1

OS:Connector:Splitter,
  {ee955e41-bc6b-42b4-86af-e033a84b9974}, !- Handle
  Connector Splitter 2,                   !- Name
  {bc3475c9-84e4-414c-a5e1-88d901b85b85}, !- Inlet Branch Name
  {502b903b-f41c-48db-9b5f-f473d0e5d6da}; !- Outlet Branch Name 1

OS:Connection,
  {7ae9469d-a509-4450-aa7b-aad0f61534f9}, !- Handle
  {1351cb52-b158-4538-85e7-6a03995d41a4}, !- Name
  {f2807b04-6fcc-4dcd-b052-224d235d6e19}, !- Source Object
  17,                                     !- Outlet Port
  {37784503-a496-4dd4-a05b-77fa605c640a}, !- Target Object
  2;                                      !- Inlet Port

OS:Connection,
  {bc3475c9-84e4-414c-a5e1-88d901b85b85}, !- Handle
  {37f133fe-f4f3-436f-9879-7eb2b963b189}, !- Name
  {37784503-a496-4dd4-a05b-77fa605c640a}, !- Source Object
  3,                                      !- Outlet Port
  {ee955e41-bc6b-42b4-86af-e033a84b9974}, !- Target Object
  2;                                      !- Inlet Port

OS:Connection,
  {502b903b-f41c-48db-9b5f-f473d0e5d6da}, !- Handle
  {7cb88c88-3dba-4ff3-a194-08bcf8af2335}, !- Name
  {ee955e41-bc6b-42b4-86af-e033a84b9974}, !- Source Object
  3,                                      !- Outlet Port
  {97f8ce54-d7ee-4112-8140-946d37dda438}, !- Target Object
  2;                                      !- Inlet Port

OS:Connection,
  {5709592a-b58a-46e6-9b31-6971c6eacadb}, !- Handle
  {991ac008-0c0a-41f2-9f6b-e33bde533c81}, !- Name
  {97f8ce54-d7ee-4112-8140-946d37dda438}, !- Source Object
  3,                                      !- Outlet Port
  {8446e8df-0f72-4817-ab47-6b9b279954df}, !- Target Object
  3;                                      !- Inlet Port

OS:Connection,
  {124304e1-e920-4495-b20d-784155eb6d71}, !- Handle
  {8c11ca24-0e86-4cc3-abf5-a42a1f591cfc}, !- Name
  {8446e8df-0f72-4817-ab47-6b9b279954df}, !- Source Object
  2,                                      !- Outlet Port
  {b2dcc6b9-22e9-46c8-bb4f-5a551596eb81}, !- Target Object
  2;                                      !- Inlet Port

OS:Connection,
  {99f86449-492f-487b-8218-e5b2e5b8c4c9}, !- Handle
  {d1c40025-5f4f-44f0-8e29-f0e44ba9fb6b}, !- Name
  {b2dcc6b9-22e9-46c8-bb4f-5a551596eb81}, !- Source Object
  3,                                      !- Outlet Port
  {f2807b04-6fcc-4dcd-b052-224d235d6e19}, !- Target Object
  18;                                     !- Inlet Port

OS:AvailabilityManagerAssignmentList,
  {bfffbe55-d571-49c0-82c8-78afe6c4c705}, !- Handle
  Plant Loop 1 AvailabilityManagerAssignmentList; !- Name

! TrackingID:#[kXLVM4]
OS:Boiler:HotWater,
  {9ebaa6b3-1e6b-47cd-9cf4-66d02861e279}, !- Handle
  boiler1,                                !- Name
  ,                                       !- Fuel Type
  ,                                       !- Nominal Capacity {W}
  ,                                       !- Nominal Thermal Efficiency
  ,                                       !- Efficiency Curve Temperature Evaluation Variable
  ,                                       !- Normalized Boiler Efficiency Curve Name
  ,                                       !- Design Water Outlet Temperature {C}
  ,                                       !- Design Water Flow Rate {m3/s}
  ,                                       !- Minimum Part Load Ratio
  ,                                       !- Maximum Part Load Ratio
  ,                                       !- Optimum Part Load Ratio
  {b6b2662a-03db-4bbf-99aa-91dda7ec5790}, !- Boiler Water Inlet Node Name
  {e3646ce9-cbc6-4b3d-9f8f-a87bb2579daf}, !- Boiler Water Outlet Node Name
  99,                                     !- Water Outlet Upper Temperature Limit {C}
  ConstantFlow,                           !- Boiler Flow Mode
  0,                                      !- Parasitic Electric Load {W}
  1;                                      !- Sizing Factor

OS:Node,
  {1b7febb7-aaeb-42e8-8b5d-e6a3764d273e}, !- Handle
  Node 7,                                 !- Name
  {e3646ce9-cbc6-4b3d-9f8f-a87bb2579daf}, !- Inlet Port
  {3b142213-fe66-4904-a8e5-c7fda181fa7e}; !- Outlet Port

OS:Connection,
  {b6b2662a-03db-4bbf-99aa-91dda7ec5790}, !- Handle
  {67160b75-ea02-45f3-9ff2-6f3603ec83b2}, !- Name
  {0039e1ca-6bb6-49fc-bbe6-461ced2750d7}, !- Source Object
  3,                                      !- Outlet Port
  {9ebaa6b3-1e6b-47cd-9cf4-66d02861e279}, !- Target Object
  12;                                     !- Inlet Port

OS:Connection,
  {e3646ce9-cbc6-4b3d-9f8f-a87bb2579daf}, !- Handle
  {8a920485-1153-44b1-8de9-a14190f4b308}, !- Name
  {9ebaa6b3-1e6b-47cd-9cf4-66d02861e279}, !- Source Object
  13,                                     !- Outlet Port
  {1b7febb7-aaeb-42e8-8b5d-e6a3764d273e}, !- Target Object
  2;                                      !- Inlet Port

! TrackingID:#[2dJXX1]
OS:Pump:ConstantSpeed,
  {7100e0f6-96d3-4f93-99e7-115f0c51c6d1}, !- Handle
  Pump Constant Speed 1,                  !- Name
  {3b142213-fe66-4904-a8e5-c7fda181fa7e}, !- Inlet Node Name
  {81b84dea-e157-4fa3-9d4a-19591c21583d}, !- Outlet Node Name
  autosize,                               !- Rated Flow Rate {m3/s}
  179352,                                 !- Rated Pump Head {Pa}
  autosize,                               !- Rated Power Consumption {W}
  0.9,                                    !- Motor Efficiency
  0,                                      !- Fraction of Motor Inefficiencies to Fluid Stream
  Intermittent,                           !- Pump Control Type
  ,                                       !- Pump Flow Rate Schedule
  ,                                       !- Pump Curve
  ,                                       !- Impeller Diameter {m}
  ,                                       !- Rotational Speed {rev/min}
  ,                                       !- Zone
  ,                                       !- Skin Loss Radiative Fraction
  PowerPerFlowPerPressure,                !- Design Power Sizing Method
  348701.1,                               !- Design Electric Power per Unit Flow Rate {W/(m3/s)}
  1.282051282;                            !- Design Shaft Power per Unit Flow Rate per Unit Head {W-s/m3-Pa}

OS:Node,
  {caeb7f3a-7fbd-478f-a4d2-ca9fc784d6bd}, !- Handle
  Node 8,                                 !- Name
  {81b84dea-e157-4fa3-9d4a-19591c21583d}, !- Inlet Port
  {8b1d28f0-4db6-42c3-b754-53b082cccc98}; !- Outlet Port

OS:Connection,
  {3b142213-fe66-4904-a8e5-c7fda181fa7e}, !- Handle
  {926b8352-36a9-45c6-985e-e3d3302e0e88}, !- Name
  {1b7febb7-aaeb-42e8-8b5d-e6a3764d273e}, !- Source Object
  3,                                      !- Outlet Port
  {7100e0f6-96d3-4f93-99e7-115f0c51c6d1}, !- Target Object
  2;                                      !- Inlet Port

OS:Connection,
  {81b84dea-e157-4fa3-9d4a-19591c21583d}, !- Handle
  {69cb7a8d-f26f-4c45-8c73-b44c79bbb5d9}, !- Name
  {7100e0f6-96d3-4f93-99e7-115f0c51c6d1}, !- Source Object
  3,                                      !- Outlet Port
  {caeb7f3a-7fbd-478f-a4d2-ca9fc784d6bd}, !- Target Object
  2;                                      !- Inlet Port

OS:Connection,
  {8b1d28f0-4db6-42c3-b754-53b082cccc98}, !- Handle
  {d50658de-f20a-4414-83f4-1fc64011135f}, !- Name
  {caeb7f3a-7fbd-478f-a4d2-ca9fc784d6bd}, !- Source Object
  3,                                      !- Outlet Port
  {4f4cbf27-e90b-4a68-bcb8-6a0fbc392dac}, !- Target Object
  3;                                      !- Inlet Port

! TrackingID:#[GyyGFw]
OS:Boiler:HotWater,
  {8640a005-9781-4b3f-b30b-5cbf60d7f7ce}, !- Handle
  boiler3,                                !- Name
  ,                                       !- Fuel Type
  ,                                       !- Nominal Capacity {W}
  ,                                       !- Nominal Thermal Efficiency
  ,                                       !- Efficiency Curve Temperature Evaluation Variable
  ,                                       !- Normalized Boiler Efficiency Curve Name
  ,                                       !- Design Water Outlet Temperature {C}
  ,                                       !- Design Water Flow Rate {m3/s}
  ,                                       !- Minimum Part Load Ratio
  ,                                       !- Maximum Part Load Ratio
  ,                                       !- Optimum Part Load Ratio
  {c56537c0-bdba-492a-8f3d-35945a2d0f33}, !- Boiler Water Inlet Node Name
  {393aaa92-1246-423e-b16f-4ff182a612df}, !- Boiler Water Outlet Node Name
  99,                                     !- Water Outlet Upper Temperature Limit {C}
  ConstantFlow,                           !- Boiler Flow Mode
  0,                                      !- Parasitic Electric Load {W}
  1;                                      !- Sizing Factor

OS:Node,
  {49e5c379-7d9a-4f75-82a0-2d19f111bb05}, !- Handle
  Node 9,                                 !- Name
  {833953d5-23ca-4562-a649-cba5f0d08aac}, !- Inlet Port
  {c56537c0-bdba-492a-8f3d-35945a2d0f33}; !- Outlet Port

OS:Connection,
  {833953d5-23ca-4562-a649-cba5f0d08aac}, !- Handle
  {31da28ca-5caa-45a7-9528-d213eda68214}, !- Name
  {218824d9-dc29-4cff-a32b-b4d2b5249712}, !- Source Object
  4,                                      !- Outlet Port
  {49e5c379-7d9a-4f75-82a0-2d19f111bb05}, !- Target Object
  2;                                      !- Inlet Port

OS:Node,
  {a4489af0-aa65-4a57-8f1c-2eff33a10486}, !- Handle
  Node 10,                                !- Name
  {393aaa92-1246-423e-b16f-4ff182a612df}, !- Inlet Port
  {36c81329-7be1-49af-8394-9b219e703ca1}; !- Outlet Port

OS:Connection,
  {c56537c0-bdba-492a-8f3d-35945a2d0f33}, !- Handle
  {e8b163fa-e4b0-494b-bb10-a3b57983f57c}, !- Name
  {49e5c379-7d9a-4f75-82a0-2d19f111bb05}, !- Source Object
  3,                                      !- Outlet Port
  {8640a005-9781-4b3f-b30b-5cbf60d7f7ce}, !- Target Object
  12;                                     !- Inlet Port

OS:Connection,
  {393aaa92-1246-423e-b16f-4ff182a612df}, !- Handle
  {4d38ed95-287a-453b-8b2e-0ffbe03155eb}, !- Name
  {8640a005-9781-4b3f-b30b-5cbf60d7f7ce}, !- Source Object
  13,                                     !- Outlet Port
  {a4489af0-aa65-4a57-8f1c-2eff33a10486}, !- Target Object
  2;                                      !- Inlet Port

! TrackingID:#[WH6Lqg]
OS:Pump:VariableSpeed,
  {872d5e5e-a6c8-49a2-a468-f6caa906bc7e}, !- Handle
  Pump Variable Speed 1,                  !- Name
  {36c81329-7be1-49af-8394-9b219e703ca1}, !- Inlet Node Name
  {8915824c-3a24-4eb8-aa79-e377f9a9eb0a}, !- Outlet Node Name
  ,                                       !- Rated Flow Rate {m3/s}
  ,                                       !- Rated Pump Head {Pa}
  ,                                       !- Rated Power Consumption {W}
  ,                                       !- Motor Efficiency
  ,                                       !- Fraction of Motor Inefficiencies to Fluid Stream
  ,                                       !- Coefficient 1 of the Part Load Performance Curve
  ,                                       !- Coefficient 2 of the Part Load Performance Curve
  ,                                       !- Coefficient 3 of the Part Load Performance Curve
  ,                                       !- Coefficient 4 of the Part Load Performance Curve
  ,                                       !- Minimum Flow Rate {m3/s}
  Intermittent,                           !- Pump Control Type
  ,                                       !- Pump Flow Rate Schedule Name
  ,                                       !- Pump Curve Name
  ,                                       !- Impeller Diameter {m}
  ,                                       !- VFD Control Type
  ,                                       !- Pump rpm Schedule Name
  ,                                       !- Minimum Pressure Schedule {Pa}
  ,                                       !- Maximum Pressure Schedule {Pa}
  ,                                       !- Minimum RPM Schedule {Rotations Per Minute}
  ,                                       !- Maximum RPM Schedule {Rotations Per Minute}
  ,                                       !- Zone Name
  0.5,                                    !- Skin Loss Radiative Fraction
  PowerPerFlowPerPressure,                !- Design Power Sizing Method
  348701.1,                               !- Design Electric Power per Unit Flow Rate {W/(m3/s)}
  1.282051282,                            !- Design Shaft Power per Unit Flow Rate per Unit Head {W-s/m3-Pa}
  0;                                      !- Design Minimum Flow Rate Fraction

OS:Node,
  {afe04f2e-1319-4585-820e-4dbccc57566a}, !- Handle
  Node 11,                                !- Name
  {8915824c-3a24-4eb8-aa79-e377f9a9eb0a}, !- Inlet Port
  {53db555a-4f04-4472-8e44-97d43a5908dd}; !- Outlet Port

OS:Connection,
  {36c81329-7be1-49af-8394-9b219e703ca1}, !- Handle
  {7f4c3ea0-a74e-475d-882d-a5783ff95a9a}, !- Name
  {a4489af0-aa65-4a57-8f1c-2eff33a10486}, !- Source Object
  3,                                      !- Outlet Port
  {872d5e5e-a6c8-49a2-a468-f6caa906bc7e}, !- Target Object
  2;                                      !- Inlet Port

OS:Connection,
  {8915824c-3a24-4eb8-aa79-e377f9a9eb0a}, !- Handle
  {0edf3b91-e965-4411-8a85-7959fe33ab7c}, !- Name
  {872d5e5e-a6c8-49a2-a468-f6caa906bc7e}, !- Source Object
  3,                                      !- Outlet Port
  {afe04f2e-1319-4585-820e-4dbccc57566a}, !- Target Object
  2;                                      !- Inlet Port

OS:Connection,
  {53db555a-4f04-4472-8e44-97d43a5908dd}, !- Handle
  {7d5235b3-3df9-4a1d-b00b-e279bcde0844}, !- Name
  {afe04f2e-1319-4585-820e-4dbccc57566a}, !- Source Object
  3,                                      !- Outlet Port
  {4f4cbf27-e90b-4a68-bcb8-6a0fbc392dac}, !- Target Object
  4;                                      !- Inlet Port

! TrackingID:#[TgamRp]
OS:Pump:VariableSpeed,
  {5e0f379d-97a5-4aba-9e7f-8859721f33d2}, !- Handle
  Pump Variable Speed 2,                  !- Name
  {c0447f97-f7b5-497f-b0d3-1caa023745d7}, !- Inlet Node Name
  {3e1a917c-a159-4183-a75f-c3b4072f6609}, !- Outlet Node Name
  ,                                       !- Rated Flow Rate {m3/s}
  ,                                       !- Rated Pump Head {Pa}
  ,                                       !- Rated Power Consumption {W}
  ,                                       !- Motor Efficiency
  ,                                       !- Fraction of Motor Inefficiencies to Fluid Stream
  ,                                       !- Coefficient 1 of the Part Load Performance Curve
  ,                                       !- Coefficient 2 of the Part Load Performance Curve
  ,                                       !- Coefficient 3 of the Part Load Performance Curve
  ,                                       !- Coefficient 4 of the Part Load Performance Curve
  ,                                       !- Minimum Flow Rate {m3/s}
  Intermittent,                           !- Pump Control Type
  ,                                       !- Pump Flow Rate Schedule Name
  ,                                       !- Pump Curve Name
  ,                                       !- Impeller Diameter {m}
  ,                                       !- VFD Control Type
  ,                                       !- Pump rpm Schedule Name
  ,                                       !- Minimum Pressure Schedule {Pa}
  ,                                       !- Maximum Pressure Schedule {Pa}
  ,                                       !- Minimum RPM Schedule {Rotations Per Minute}
  ,                                       !- Maximum RPM Schedule {Rotations Per Minute}
  ,                                       !- Zone Name
  0.5,                                    !- Skin Loss Radiative Fraction
  PowerPerFlowPerPressure,                !- Design Power Sizing Method
  348701.1,                               !- Design Electric Power per Unit Flow Rate {W/(m3/s)}
  1.282051282,                            !- Design Shaft Power per Unit Flow Rate per Unit Head {W-s/m3-Pa}
  0;                                      !- Design Minimum Flow Rate Fraction

OS:Node,
  {132319eb-0369-40d0-834a-ca7032e25e34}, !- Handle
  Node 12,                                !- Name
  {77abf31d-f578-440f-8cbc-073458af2cb0}, !- Inlet Port
  {c0447f97-f7b5-497f-b0d3-1caa023745d7}; !- Outlet Port

OS:Connection,
  {77abf31d-f578-440f-8cbc-073458af2cb0}, !- Handle
  {9e619453-8d35-411a-9d6a-a46fc7be418d}, !- Name
  {218824d9-dc29-4cff-a32b-b4d2b5249712}, !- Source Object
  5,                                      !- Outlet Port
  {132319eb-0369-40d0-834a-ca7032e25e34}, !- Target Object
  2;                                      !- Inlet Port

OS:Node,
  {8e823a09-1960-4839-b9ae-ebd618497ed6}, !- Handle
  Node 13,                                !- Name
  {3e1a917c-a159-4183-a75f-c3b4072f6609}, !- Inlet Port
  {be2ad5a8-e40e-4493-84a2-29b591d721d5}; !- Outlet Port

OS:Connection,
  {c0447f97-f7b5-497f-b0d3-1caa023745d7}, !- Handle
  {21852050-6dd9-482e-bd58-a61fd5da2052}, !- Name
  {132319eb-0369-40d0-834a-ca7032e25e34}, !- Source Object
  3,                                      !- Outlet Port
  {5e0f379d-97a5-4aba-9e7f-8859721f33d2}, !- Target Object
  2;                                      !- Inlet Port

OS:Connection,
  {3e1a917c-a159-4183-a75f-c3b4072f6609}, !- Handle
  {23ec9fb4-a8a3-43ac-bd67-dba96071d913}, !- Name
  {5e0f379d-97a5-4aba-9e7f-8859721f33d2}, !- Source Object
  3,                                      !- Outlet Port
  {8e823a09-1960-4839-b9ae-ebd618497ed6}, !- Target Object
  2;                                      !- Inlet Port

OS:Connection,
  {be2ad5a8-e40e-4493-84a2-29b591d721d5}, !- Handle
  {f3e88a62-eac1-4a33-a000-d2857a9b4b28}, !- Name
  {8e823a09-1960-4839-b9ae-ebd618497ed6}, !- Source Object
  3,                                      !- Outlet Port
  {4f4cbf27-e90b-4a68-bcb8-6a0fbc392dac}, !- Target Object
  5;                                      !- Inlet Port

! TrackingID:#[tgRG38]
OS:Pump:ConstantSpeed,
  {cacbbeb6-7b90-43d9-af47-e81e020c93a3}, !- Handle
  Pump Constant Speed 2,                  !- Name
  {76e9fed7-4e5e-40a9-a9cd-4192101dfd47}, !- Inlet Node Name
  {5d3fe6ae-69c0-47ef-a4d5-40e39d685f4c}, !- Outlet Node Name
  autosize,                               !- Rated Flow Rate {m3/s}
  179352,                                 !- Rated Pump Head {Pa}
  autosize,                               !- Rated Power Consumption {W}
  0.9,                                    !- Motor Efficiency
  0,                                      !- Fraction of Motor Inefficiencies to Fluid Stream
  Intermittent,                           !- Pump Control Type
  ,                                       !- Pump Flow Rate Schedule
  ,                                       !- Pump Curve
  ,                                       !- Impeller Diameter {m}
  ,                                       !- Rotational Speed {rev/min}
  ,                                       !- Zone
  ,                                       !- Skin Loss Radiative Fraction
  PowerPerFlowPerPressure,                !- Design Power Sizing Method
  348701.1,                               !- Design Electric Power per Unit Flow Rate {W/(m3/s)}
  1.282051282;                            !- Design Shaft Power per Unit Flow Rate per Unit Head {W-s/m3-Pa}

OS:Node,
  {80b104ce-5aef-484b-afea-19e39cc11a68}, !- Handle
  Node 14,                                !- Name
  {b0a30563-db72-4f20-9fa8-fc69307f94e4}, !- Inlet Port
  {76e9fed7-4e5e-40a9-a9cd-4192101dfd47}; !- Outlet Port

OS:Connection,
  {b0a30563-db72-4f20-9fa8-fc69307f94e4}, !- Handle
  {4c9e0458-64a9-4129-a3bd-5731992a8370}, !- Name
  {218824d9-dc29-4cff-a32b-b4d2b5249712}, !- Source Object
  6,                                      !- Outlet Port
  {80b104ce-5aef-484b-afea-19e39cc11a68}, !- Target Object
  2;                                      !- Inlet Port

OS:Node,
  {f41a0c03-e110-45ba-822a-fa2d2bd576a7}, !- Handle
  Node 15,                                !- Name
  {5d3fe6ae-69c0-47ef-a4d5-40e39d685f4c}, !- Inlet Port
  {9d6ba12d-5cbe-461c-af88-7d6e1c8f3dd4}; !- Outlet Port

OS:Connection,
  {76e9fed7-4e5e-40a9-a9cd-4192101dfd47}, !- Handle
  {7ba06be3-789b-48d7-9bf6-135431cb4fe6}, !- Name
  {80b104ce-5aef-484b-afea-19e39cc11a68}, !- Source Object
  3,                                      !- Outlet Port
  {cacbbeb6-7b90-43d9-af47-e81e020c93a3}, !- Target Object
  2;                                      !- Inlet Port

OS:Connection,
  {5d3fe6ae-69c0-47ef-a4d5-40e39d685f4c}, !- Handle
  {464d4970-4e2d-4f6c-a26d-a034e664a8cc}, !- Name
  {cacbbeb6-7b90-43d9-af47-e81e020c93a3}, !- Source Object
  3,                                      !- Outlet Port
  {f41a0c03-e110-45ba-822a-fa2d2bd576a7}, !- Target Object
  2;                                      !- Inlet Port

OS:Connection,
  {9d6ba12d-5cbe-461c-af88-7d6e1c8f3dd4}, !- Handle
  {444d1eb3-accd-411a-864a-53b3f7f457d9}, !- Name
  {f41a0c03-e110-45ba-822a-fa2d2bd576a7}, !- Source Object
  3,                                      !- Outlet Port
  {4f4cbf27-e90b-4a68-bcb8-6a0fbc392dac}, !- Target Object
  6;                                      !- Inlet Port

