
OS:Version,
  {05cd8ef9-3cbd-47be-83bc-3dd83a5712c7}, !- Handle
  2.4.0;                                  !- Version Identifier

! TrackingID:#[oJVVnpUA]
OS:PlantLoop,
  {daf040a1-bac7-438e-83b6-17a0fbf16ad0}, !- Handle
  Hot Water Loop,                         !- Name
  Water,                                  !- Fluid Type
  0,                                      !- Glycol Concentration
  ,                                       !- User Defined Fluid Type
  ,                                       !- Plant Equipment Operation Heating Load
  ,                                       !- Plant Equipment Operation Cooling Load
  ,                                       !- Primary Plant Equipment Operation Scheme
  {54335fe4-1f18-4b2a-ab5c-d982d31ccb97}, !- Loop Temperature Setpoint Node Name
  ,                                       !- Maximum Loop Temperature {C}
  ,                                       !- Minimum Loop Temperature {C}
  ,                                       !- Maximum Loop Flow Rate {m3/s}
  ,                                       !- Minimum Loop Flow Rate {m3/s}
  Autocalculate,                          !- Plant Loop Volume {m3}
  {46e5e83b-ebbf-4810-8434-9ae9511f6549}, !- Plant Side Inlet Node Name
  {9c8ca7a0-d824-4404-b5f5-a6a6487e6a47}, !- Plant Side Outlet Node Name
  ,                                       !- Plant Side Branch List Name
  {f0c24c91-4c7d-44ec-a765-81394c3df6ae}, !- Demand Side Inlet Node Name
  {354b7b82-379e-4021-ab78-50b230207691}, !- Demand Side Outlet Node Name
  ,                                       !- Demand Side Branch List Name
  ,                                       !- Demand Side Connector List Name
  Optimal,                                !- Load Distribution Scheme
  {3be28e4c-3cea-4294-a306-dcdc47e22c84}, !- Availability Manager List Name
  ,                                       !- Plant Loop Demand Calculation Scheme
  ,                                       !- Common Pipe Simulation
  ,                                       !- Pressure Simulation Type
  ,                                       !- Plant Equipment Operation Heating Load Schedule
  ,                                       !- Plant Equipment Operation Cooling Load Schedule
  ,                                       !- Primary Plant Equipment Operation Scheme Schedule
  ,                                       !- Component Setpoint Operation Scheme Schedule
  {283be287-e5db-49f0-8a49-672d7fb1128a}, !- Demand Mixer Name
  {a7ddaff9-5918-44b8-9252-f443d1e734ba}, !- Demand Splitter Name
  {02ceb1c9-d9b3-416b-9be8-01afcfff6b58}, !- Supply Mixer Name
  {d4e25780-4917-4d38-ad5c-34273c4e19df}; !- Supply Splitter Name

OS:Sizing:Plant,
  {e8067cf1-e262-49e2-acfa-b83d9b63e1ba}, !- Handle
  {daf040a1-bac7-438e-83b6-17a0fbf16ad0}, !- Plant or Condenser Loop Name
  Heating,                                !- Loop Type
  82,                                     !- Design Loop Exit Temperature {C}
  11,                                     !- Loop Design Temperature Difference {deltaC}
  NonCoincident,                          !- Sizing Option
  1,                                      !- Zone Timesteps in Averaging Window
  None;                                   !- Coincident Sizing Factor Mode

OS:Node,
  {3d615466-abba-4428-b14c-af9213e4bae6}, !- Handle
  Node 1,                                 !- Name
  {46e5e83b-ebbf-4810-8434-9ae9511f6549}, !- Inlet Port
  {422f65d4-6847-424e-88aa-0e3357976e6e}; !- Outlet Port

OS:Node,
  {54335fe4-1f18-4b2a-ab5c-d982d31ccb97}, !- Handle
  Node 2,                                 !- Name
  {d50a1fa9-2426-4955-901d-3dee4200744f}, !- Inlet Port
  {9c8ca7a0-d824-4404-b5f5-a6a6487e6a47}; !- Outlet Port

OS:Node,
  {be232c38-2649-45a0-8bd5-7727d22a7e02}, !- Handle
  Node 3,                                 !- Name
  {e9b1c6e8-a104-4fb4-aa23-2f620f294931}, !- Inlet Port
  {37725e9b-d6b2-43c2-b2e7-68e240c8278e}; !- Outlet Port

OS:Connector:Mixer,
  {02ceb1c9-d9b3-416b-9be8-01afcfff6b58}, !- Handle
  Connector Mixer 1,                      !- Name
  {d50a1fa9-2426-4955-901d-3dee4200744f}, !- Outlet Branch Name
  {37725e9b-d6b2-43c2-b2e7-68e240c8278e}; !- Inlet Branch Name 1

OS:Connector:Splitter,
  {d4e25780-4917-4d38-ad5c-34273c4e19df}, !- Handle
  Connector Splitter 1,                   !- Name
  {422f65d4-6847-424e-88aa-0e3357976e6e}, !- Inlet Branch Name
  {e9b1c6e8-a104-4fb4-aa23-2f620f294931}; !- Outlet Branch Name 1

OS:Connection,
  {46e5e83b-ebbf-4810-8434-9ae9511f6549}, !- Handle
  {d97b06b7-110f-458d-a6e7-25da91f3b052}, !- Name
  {daf040a1-bac7-438e-83b6-17a0fbf16ad0}, !- Source Object
  14,                                     !- Outlet Port
  {3d615466-abba-4428-b14c-af9213e4bae6}, !- Target Object
  2;                                      !- Inlet Port

OS:Connection,
  {422f65d4-6847-424e-88aa-0e3357976e6e}, !- Handle
  {16840863-60ec-46ae-afa0-b3780bbb4b4c}, !- Name
  {3d615466-abba-4428-b14c-af9213e4bae6}, !- Source Object
  3,                                      !- Outlet Port
  {d4e25780-4917-4d38-ad5c-34273c4e19df}, !- Target Object
  2;                                      !- Inlet Port

OS:Connection,
  {e9b1c6e8-a104-4fb4-aa23-2f620f294931}, !- Handle
  {d43c6da6-58bb-4dc7-b05f-de99ed07d651}, !- Name
  {d4e25780-4917-4d38-ad5c-34273c4e19df}, !- Source Object
  3,                                      !- Outlet Port
  {be232c38-2649-45a0-8bd5-7727d22a7e02}, !- Target Object
  2;                                      !- Inlet Port

OS:Connection,
  {37725e9b-d6b2-43c2-b2e7-68e240c8278e}, !- Handle
  {aa4ac698-1ff7-41c8-9512-128bbbe9587a}, !- Name
  {be232c38-2649-45a0-8bd5-7727d22a7e02}, !- Source Object
  3,                                      !- Outlet Port
  {02ceb1c9-d9b3-416b-9be8-01afcfff6b58}, !- Target Object
  3;                                      !- Inlet Port

OS:Connection,
  {d50a1fa9-2426-4955-901d-3dee4200744f}, !- Handle
  {4e04ae88-1fbc-41c7-8cd9-00f8d38cf55d}, !- Name
  {02ceb1c9-d9b3-416b-9be8-01afcfff6b58}, !- Source Object
  2,                                      !- Outlet Port
  {54335fe4-1f18-4b2a-ab5c-d982d31ccb97}, !- Target Object
  2;                                      !- Inlet Port

OS:Connection,
  {9c8ca7a0-d824-4404-b5f5-a6a6487e6a47}, !- Handle
  {78d1e4fa-e77f-41b6-8034-73ac20b5bd05}, !- Name
  {54335fe4-1f18-4b2a-ab5c-d982d31ccb97}, !- Source Object
  3,                                      !- Outlet Port
  {daf040a1-bac7-438e-83b6-17a0fbf16ad0}, !- Target Object
  15;                                     !- Inlet Port

OS:Node,
  {df8ae960-63a8-43b0-b649-1f4d021bab00}, !- Handle
  Node 4,                                 !- Name
  {f0c24c91-4c7d-44ec-a765-81394c3df6ae}, !- Inlet Port
  {9d48a67e-998a-4eab-8fbb-9ec2be0d2d44}; !- Outlet Port

OS:Node,
  {36327838-54f7-4cf7-b062-facc4a40bb0e}, !- Handle
  Node 5,                                 !- Name
  {8e325222-883e-41eb-a85d-b2c6a28ac794}, !- Inlet Port
  {354b7b82-379e-4021-ab78-50b230207691}; !- Outlet Port

OS:Node,
  {206ff14c-8415-41ca-8f8a-137867fe0a11}, !- Handle
  Node 6,                                 !- Name
  {e392ce46-ea01-42c5-9032-f7f57870ef43}, !- Inlet Port
  {d8fc0964-3713-4e87-b659-67363bbaa79d}; !- Outlet Port

OS:Connector:Mixer,
  {283be287-e5db-49f0-8a49-672d7fb1128a}, !- Handle
  Connector Mixer 2,                      !- Name
  {8e325222-883e-41eb-a85d-b2c6a28ac794}, !- Outlet Branch Name
  {d8fc0964-3713-4e87-b659-67363bbaa79d}; !- Inlet Branch Name 1

OS:Connector:Splitter,
  {a7ddaff9-5918-44b8-9252-f443d1e734ba}, !- Handle
  Connector Splitter 2,                   !- Name
  {9d48a67e-998a-4eab-8fbb-9ec2be0d2d44}, !- Inlet Branch Name
  {e392ce46-ea01-42c5-9032-f7f57870ef43}; !- Outlet Branch Name 1

OS:Connection,
  {f0c24c91-4c7d-44ec-a765-81394c3df6ae}, !- Handle
  {f7fcf121-83b3-4b04-881a-f663521ee955}, !- Name
  {daf040a1-bac7-438e-83b6-17a0fbf16ad0}, !- Source Object
  17,                                     !- Outlet Port
  {df8ae960-63a8-43b0-b649-1f4d021bab00}, !- Target Object
  2;                                      !- Inlet Port

OS:Connection,
  {9d48a67e-998a-4eab-8fbb-9ec2be0d2d44}, !- Handle
  {3326faeb-c0fb-486e-b5d2-f40c25fcf065}, !- Name
  {df8ae960-63a8-43b0-b649-1f4d021bab00}, !- Source Object
  3,                                      !- Outlet Port
  {a7ddaff9-5918-44b8-9252-f443d1e734ba}, !- Target Object
  2;                                      !- Inlet Port

OS:Connection,
  {e392ce46-ea01-42c5-9032-f7f57870ef43}, !- Handle
  {b1d0158f-06ba-4e12-9cb7-5480121f181c}, !- Name
  {a7ddaff9-5918-44b8-9252-f443d1e734ba}, !- Source Object
  3,                                      !- Outlet Port
  {206ff14c-8415-41ca-8f8a-137867fe0a11}, !- Target Object
  2;                                      !- Inlet Port

OS:Connection,
  {d8fc0964-3713-4e87-b659-67363bbaa79d}, !- Handle
  {4e36e78c-8b36-4225-a830-369832cfe749}, !- Name
  {206ff14c-8415-41ca-8f8a-137867fe0a11}, !- Source Object
  3,                                      !- Outlet Port
  {283be287-e5db-49f0-8a49-672d7fb1128a}, !- Target Object
  3;                                      !- Inlet Port

OS:Connection,
  {8e325222-883e-41eb-a85d-b2c6a28ac794}, !- Handle
  {e613322f-7357-4720-a5c3-d8e9f8091194}, !- Name
  {283be287-e5db-49f0-8a49-672d7fb1128a}, !- Source Object
  2,                                      !- Outlet Port
  {36327838-54f7-4cf7-b062-facc4a40bb0e}, !- Target Object
  2;                                      !- Inlet Port

OS:Connection,
  {354b7b82-379e-4021-ab78-50b230207691}, !- Handle
  {07fdbfc5-b5f1-4133-ad47-6f0ecb52888c}, !- Name
  {36327838-54f7-4cf7-b062-facc4a40bb0e}, !- Source Object
  3,                                      !- Outlet Port
  {daf040a1-bac7-438e-83b6-17a0fbf16ad0}, !- Target Object
  18;                                     !- Inlet Port

OS:AvailabilityManagerAssignmentList,
  {3be28e4c-3cea-4294-a306-dcdc47e22c84}, !- Handle
  Plant Loop 1 AvailabilityManagerAssignmentList; !- Name

! TrackingID:#[IAIEUmpc]
OS:Sizing:Plant,
  {e0fa9b36-841d-4d58-8447-7755d211631d}, !- Handle
  {daf040a1-bac7-438e-83b6-17a0fbf16ad0}, !- Plant or Condenser Loop Name
  Heating,                                !- Loop Type
  82,                                     !- Design Loop Exit Temperature {C}
  11,                                     !- Loop Design Temperature Difference {deltaC}
  NonCoincident,                          !- Sizing Option
  1,                                      !- Zone Timesteps in Averaging Window
  None;                                   !- Coincident Sizing Factor Mode

