
OS:Version,
  {6c21233a-cc6d-4eca-82c3-7d028e11b004}, !- Handle
  2.4.0;                                  !- Version Identifier

! TrackingID:#[oshMvh]
OS:AirConditioner:VariableRefrigerantFlow,
  {ca325fda-965c-4b07-9f5a-4df2b3b7d91e}, !- Handle
  Air Conditioner Variable Refrigerant Flow 1, !- Name
  {88583931-43fd-4ccd-b5e5-dd5930f3de7d}, !- Availability Schedule
  autosize,                               !- Rated Total Cooling Capacity {W}
  3.3,                                    !- Rated Cooling COP {W/W}
  -5,                                     !- Minimum Outdoor Temperature in Cooling Mode {C}
  43,                                     !- Maximum Outdoor Temperature in Cooling Mode {C}
  {f2594a3f-d8b0-40b9-9f81-db1cc09490bf}, !- Cooling Capacity Ratio Modifier Function of Low Temperature Curve
  {3384b57b-335b-4636-813c-163af603a54b}, !- Cooling Capacity Ratio Boundary Curve
  {012ce078-868a-4eba-97b8-78c968438325}, !- Cooling Capacity Ratio Modifier Function of High Temperature Curve
  {f723fd1b-b5ec-408b-8e9a-16d5d213f2b2}, !- Cooling Energy Input Ratio Modifier Function of Low Temperature Curve
  {79ed83a5-75f6-46bb-a5d2-945cec08cc24}, !- Cooling Energy Input Ratio Boundary Curve
  {d83d80b1-8b66-4c3d-9140-4d38cbbf822f}, !- Cooling Energy Input Ratio Modifier Function of High Temperature Curve
  {2e82cdb5-88cd-4191-a099-146f39d0434a}, !- Cooling Energy Input Ratio Modifier Function of Low Part-Load Ratio Curve
  {9ca83d58-60b5-419c-9a3b-ebec5f343ee8}, !- Cooling Energy Input Ratio Modifier Function of High Part-Load Ratio Curve
  {793b13f4-1a29-4b50-889a-92d98bc41cba}, !- Cooling Combination Ratio Correction Factor Curve
  {5bbbe79e-b759-4ce9-a091-7f5e2d1d9be7}, !- Cooling Part-Load Fraction Correlation Curve
  autosize,                               !- Rated Total Heating Capacity {W}
  1,                                      !- Rated Total Heating Capacity Sizing Ratio {W/W}
  3.5,                                    !- Rated Heating COP {W/W}
  -20,                                    !- Minimum Outdoor Temperature in Heating Mode {C}
  30,                                     !- Maximum Outdoor Temperature in Heating Mode {C}
  {db688869-f1c8-4ea4-9fb9-4bfc24efa535}, !- Heating Capacity Ratio Modifier Function of Low Temperature Curve
  {bb213e04-a2d0-4a21-b75d-6cf91ac481d8}, !- Heating Capacity Ratio Boundary Curve
  {1e24b620-b043-4ea6-9bf3-576359ab5486}, !- Heating Capacity Ratio Modifier Function of High Temperature Curve
  {217a2e9c-8065-4247-acf8-f7fe39eabe29}, !- Heating Energy Input Ratio Modifier Function of Low Temperature Curve
  {460671a5-e360-4cbf-928e-840b3de05cd7}, !- Heating Energy Input Ratio Boundary Curve
  {e2186e57-0b3b-420f-b668-307218cfcb38}, !- Heating Energy Input Ratio Modifier Function of High Temperature Curve
  WetBulbTemperature,                     !- Heating Performance Curve Outdoor Temperature Type
  {bb3dac11-af87-42a4-9284-af3a9b9f21ef}, !- Heating Energy Input Ratio Modifier Function of Low Part-Load Ratio Curve
  {4b04ac5b-d286-4852-a403-307eaf015f72}, !- Heating Energy Input Ratio Modifier Function of High Part-Load Ratio Curve
  {da5b2423-c45a-4049-adbd-41d20400b94e}, !- Heating Combination Ratio Correction Factor Curve
  {5bbbe79e-b759-4ce9-a091-7f5e2d1d9be7}, !- Heating Part-Load Fraction Correlation Curve
  0.25,                                   !- Minimum Heat Pump Part-Load Ratio
  ,                                       !- Zone Name for Master Thermostat Location
  LoadPriority,                           !- Master Thermostat Priority Control Type
  ,                                       !- Thermostat Priority Schedule
  {974a9945-94be-46d3-a811-66f02f2f1252}, !- Zone Terminal Unit List
  No,                                     !- Heat Pump Waste Heat Recovery
  30,                                     !- Equivalent Piping Length used for Piping Correction Factor in Cooling Mode {m}
  10,                                     !- Vertical Height used for Piping Correction Factor {m}
  {96b15768-7fff-4edb-8966-09ef959dcffe}, !- Piping Correction Factor for Length in Cooling Mode Curve
  -0.000386,                              !- Piping Correction Factor for Height in Cooling Mode Coefficient
  30,                                     !- Equivalent Piping Length used for Piping Correction Factor in Heating Mode {m}
  ,                                       !- Piping Correction Factor for Length in Heating Mode Curve
  0,                                      !- Piping Correction Factor for Height in Heating Mode Coefficient
  15,                                     !- Crankcase Heater Power per Compressor {W}
  3,                                      !- Number of Compressors
  0.33,                                   !- Ratio of Compressor Size to Total Compressor Capacity
  7,                                      !- Maximum Outdoor Dry-bulb Temperature for Crankcase Heater {C}
  Resistive,                              !- Defrost Strategy
  Timed,                                  !- Defrost Control
  ,                                       !- Defrost Energy Input Ratio Modifier Function of Temperature Curve
  0.058333,                               !- Defrost Time Period Fraction
  1e-007,                                 !- Resistive Defrost Heater Capacity {W}
  7,                                      !- Maximum Outdoor Dry-bulb Temperature for Defrost Operation {C}
  ,                                       !- Condenser Type
  ,                                       !- Condenser Inlet Node
  ,                                       !- Condenser Outlet Node
  autosize,                               !- Water Condenser Volume Flow Rate {m3/s}
  0.9,                                    !- Evaporative Condenser Effectiveness {dimensionless}
  autosize,                               !- Evaporative Condenser Air Flow Rate {m3/s}
  autosize,                               !- Evaporative Condenser Pump Rated Power Consumption {W}
  ,                                       !- Supply Water Storage Tank
  0,                                      !- Basin Heater Capacity {W/K}
  2,                                      !- Basin Heater Setpoint Temperature {C}
  ,                                       !- Basin Heater Operating Schedule
  Electricity,                            !- Fuel Type
  0,                                      !- Minimum Outdoor Temperature in Heat Recovery Mode {C}
  20,                                     !- Maximum Outdoor Temperature in Heat Recovery Mode {C}
  ,                                       !- Heat Recovery Cooling Capacity Modifier Curve
  0.5,                                    !- Initial Heat Recovery Cooling Capacity Fraction
  0.083,                                  !- Heat Recovery Cooling Capacity Time Constant {hr}
  ,                                       !- Heat Recovery Cooling Energy Modifier Curve
  1,                                      !- Initial Heat Recovery Cooling Energy Fraction
  0,                                      !- Heat Recovery Cooling Energy Time Constant {hr}
  ,                                       !- Heat Recovery Heating Capacity Modifier Curve
  0.5,                                    !- Initial Heat Recovery Heating Capacity Fraction
  0.083,                                  !- Heat Recovery Heating Capacity Time Constant {hr}
  ,                                       !- Heat Recovery Heating Energy Modifier Curve
  0.5,                                    !- Initial Heat Recovery Heating Energy Fraction
  0;                                      !- Heat Recovery Heating Energy Time Constant {hr}

OS:Schedule:Constant,
  {88583931-43fd-4ccd-b5e5-dd5930f3de7d}, !- Handle
  Always On Discrete,                     !- Name
  {b192aabc-e9ae-4b1f-8aac-792aaadc194d}, !- Schedule Type Limits Name
  1;                                      !- Value

OS:ScheduleTypeLimits,
  {b192aabc-e9ae-4b1f-8aac-792aaadc194d}, !- Handle
  OnOff,                                  !- Name
  0,                                      !- Lower Limit Value
  1,                                      !- Upper Limit Value
  Discrete,                               !- Numeric Type
  Availability;                           !- Unit Type

OS:Curve:Biquadratic,
  {f2594a3f-d8b0-40b9-9f81-db1cc09490bf}, !- Handle
  Air Conditioner Variable Refrigerant Flow 1 VRFCoolCapFT, !- Name
  0.576882692,                            !- Coefficient1 Constant
  0.017447952,                            !- Coefficient2 x
  0.000583269,                            !- Coefficient3 x**2
  -1.76324e-006,                          !- Coefficient4 y
  -7.474e-009,                            !- Coefficient5 y**2
  -1.30413e-007,                          !- Coefficient6 x*y
  15,                                     !- Minimum Value of x
  24,                                     !- Maximum Value of x
  -5,                                     !- Minimum Value of y
  23;                                     !- Maximum Value of y

OS:Curve:Cubic,
  {3384b57b-335b-4636-813c-163af603a54b}, !- Handle
  Air Conditioner Variable Refrigerant Flow 1 VRFCoolCapFTBoundary, !- Name
  25.73,                                  !- Coefficient1 Constant
  -0.03150043,                            !- Coefficient2 x
  -0.01416595,                            !- Coefficient3 x**2
  0,                                      !- Coefficient4 x**3
  11,                                     !- Minimum Value of x
  30;                                     !- Maximum Value of x

OS:Curve:Biquadratic,
  {012ce078-868a-4eba-97b8-78c968438325}, !- Handle
  Air Conditioner Variable Refrigerant Flow 1 VRFCoolCapFTHi, !- Name
  0.6867358,                              !- Coefficient1 Constant
  0.0207631,                              !- Coefficient2 x
  0.0005447,                              !- Coefficient3 x**2
  -0.0016218,                             !- Coefficient4 y
  -4.259e-007,                            !- Coefficient5 y**2
  -0.0003392,                             !- Coefficient6 x*y
  15,                                     !- Minimum Value of x
  24,                                     !- Maximum Value of x
  16,                                     !- Minimum Value of y
  43;                                     !- Maximum Value of y

OS:Curve:Biquadratic,
  {f723fd1b-b5ec-408b-8e9a-16d5d213f2b2}, !- Handle
  Air Conditioner Variable Refrigerant Flow 1 VRFCoolEIRFT, !- Name
  0.989010541,                            !- Coefficient1 Constant
  -0.02347967,                            !- Coefficient2 x
  0.000199711,                            !- Coefficient3 x**2
  0.005968336,                            !- Coefficient4 y
  -1.0289e-007,                           !- Coefficient5 y**2
  -0.00015686,                            !- Coefficient6 x*y
  15,                                     !- Minimum Value of x
  24,                                     !- Maximum Value of x
  -5,                                     !- Minimum Value of y
  23;                                     !- Maximum Value of y

OS:Curve:Cubic,
  {79ed83a5-75f6-46bb-a5d2-945cec08cc24}, !- Handle
  Air Conditioner Variable Refrigerant Flow 1 VRFCoolEIRFTBoundary, !- Name
  25.73473775,                            !- Coefficient1 Constant
  -0.03150043,                            !- Coefficient2 x
  -0.01416595,                            !- Coefficient3 x**2
  0,                                      !- Coefficient4 x**3
  15,                                     !- Minimum Value of x
  24;                                     !- Maximum Value of x

OS:Curve:Biquadratic,
  {d83d80b1-8b66-4c3d-9140-4d38cbbf822f}, !- Handle
  Air Conditioner Variable Refrigerant Flow 1 VRFCoolEIRFTHi, !- Name
  -1.4395110176,                          !- Coefficient1 Constant
  0.1619850459,                           !- Coefficient2 x
  -0.0034911781,                          !- Coefficient3 x**2
  0.0269442645,                           !- Coefficient4 y
  0.0001346163,                           !- Coefficient5 y**2
  -0.0006714941,                          !- Coefficient6 x*y
  15,                                     !- Minimum Value of x
  23.9,                                   !- Maximum Value of x
  16.8,                                   !- Minimum Value of y
  43.3;                                   !- Maximum Value of y

OS:Curve:Cubic,
  {2e82cdb5-88cd-4191-a099-146f39d0434a}, !- Handle
  Air Conditioner Variable Refrigerant Flow 1 CoolingEIRLowPLR, !- Name
  0.4541226192,                           !- Coefficient1 Constant
  -0.1729687081,                          !- Coefficient2 x
  1.0828661347,                           !- Coefficient3 x**2
  -0.3618480897,                          !- Coefficient4 x**3
  0.5,                                    !- Minimum Value of x
  1;                                      !- Maximum Value of x

OS:Curve:Cubic,
  {9ca83d58-60b5-419c-9a3b-ebec5f343ee8}, !- Handle
  Air Conditioner Variable Refrigerant Flow 1 CoolingEIRHiPLR, !- Name
  1,                                      !- Coefficient1 Constant
  0,                                      !- Coefficient2 x
  0,                                      !- Coefficient3 x**2
  0,                                      !- Coefficient4 x**3
  1,                                      !- Minimum Value of x
  1.5;                                    !- Maximum Value of x

OS:Curve:Cubic,
  {793b13f4-1a29-4b50-889a-92d98bc41cba}, !- Handle
  Air Conditioner Variable Refrigerant Flow 1 CoolingCombRatio, !- Name
  0.576593263,                            !- Coefficient1 Constant
  0.6349408697,                           !- Coefficient2 x
  -0.3076093963,                          !- Coefficient3 x**2
  0.0960752636,                           !- Coefficient4 x**3
  1,                                      !- Minimum Value of x
  1.5;                                    !- Maximum Value of x

OS:Curve:Cubic,
  {5bbbe79e-b759-4ce9-a091-7f5e2d1d9be7}, !- Handle
  Air Conditioner Variable Refrigerant Flow 1 VRFCPLFFPLR, !- Name
  0.85,                                   !- Coefficient1 Constant
  0.15,                                   !- Coefficient2 x
  0,                                      !- Coefficient3 x**2
  0,                                      !- Coefficient4 x**3
  1,                                      !- Minimum Value of x
  1;                                      !- Maximum Value of x

OS:Curve:Biquadratic,
  {db688869-f1c8-4ea4-9fb9-4bfc24efa535}, !- Handle
  Air Conditioner Variable Refrigerant Flow 1 VRFHeatCapFT, !- Name
  1.012090154,                            !- Coefficient1 Constant
  -0.0012467553,                          !- Coefficient2 x
  -0.0001271847,                          !- Coefficient3 x**2
  0.0267564328,                           !- Coefficient4 y
  -4.986e-007,                            !- Coefficient5 y**2
  -0.0002635239,                          !- Coefficient6 x*y
  21.1,                                   !- Minimum Value of x
  27.2,                                   !- Maximum Value of x
  -20,                                    !- Minimum Value of y
  3.33;                                   !- Maximum Value of y

OS:Curve:Cubic,
  {bb213e04-a2d0-4a21-b75d-6cf91ac481d8}, !- Handle
  Air Conditioner Variable Refrigerant Flow 1 VRFHeatCapFTBoundary, !- Name
  58.577,                                 !- Coefficient1 Constant
  -3.0255,                                !- Coefficient2 x
  0.0193,                                 !- Coefficient3 x**2
  0,                                      !- Coefficient4 x**3
  15,                                     !- Minimum Value of x
  23.9;                                   !- Maximum Value of x

OS:Curve:Biquadratic,
  {1e24b620-b043-4ea6-9bf3-576359ab5486}, !- Handle
  Air Conditioner Variable Refrigerant Flow 1 VRFHeatCapFTHi, !- Name
  2.5859872368,                           !- Coefficient1 Constant
  -0.0953227101,                          !- Coefficient2 x
  0.0009553288,                           !- Coefficient3 x**2
  0,                                      !- Coefficient4 y
  0,                                      !- Coefficient5 y**2
  0,                                      !- Coefficient6 x*y
  21.1,                                   !- Minimum Value of x
  27.2,                                   !- Maximum Value of x
  -9.44,                                  !- Minimum Value of y
  15;                                     !- Maximum Value of y

OS:Curve:Biquadratic,
  {217a2e9c-8065-4247-acf8-f7fe39eabe29}, !- Handle
  Air Conditioner Variable Refrigerant Flow 1 VRFHeatEIRFT, !- Name
  0.7224292683,                           !- Coefficient1 Constant
  0.0034566628,                           !- Coefficient2 x
  0.0006507028,                           !- Coefficient3 x**2
  -0.0026435362,                          !- Coefficient4 y
  0.0012464766,                           !- Coefficient5 y**2
  -0.0001009161,                          !- Coefficient6 x*y
  21.1,                                   !- Minimum Value of x
  27.2,                                   !- Maximum Value of x
  -20,                                    !- Minimum Value of y
  3.33;                                   !- Maximum Value of y

OS:Curve:Cubic,
  {460671a5-e360-4cbf-928e-840b3de05cd7}, !- Handle
  Air Conditioner Variable Refrigerant Flow 1 VRFHeatEIRFTBoundary, !- Name
  58.577,                                 !- Coefficient1 Constant
  -3.0255,                                !- Coefficient2 x
  0.0193,                                 !- Coefficient3 x**2
  0,                                      !- Coefficient4 x**3
  15,                                     !- Minimum Value of x
  23.9;                                   !- Maximum Value of x

OS:Curve:Biquadratic,
  {e2186e57-0b3b-420f-b668-307218cfcb38}, !- Handle
  Air Conditioner Variable Refrigerant Flow 1 VRFHeatEIRFTHi, !- Name
  1.3885703646,                           !- Coefficient1 Constant
  -0.0229771462,                          !- Coefficient2 x
  0.000537274,                            !- Coefficient3 x**2
  -0.0273936962,                          !- Coefficient4 y
  0.0004030426,                           !- Coefficient5 y**2
  -5.9786e-005,                           !- Coefficient6 x*y
  21.1,                                   !- Minimum Value of x
  27.2,                                   !- Maximum Value of x
  0,                                      !- Minimum Value of y
  1;                                      !- Maximum Value of y

OS:Curve:Cubic,
  {bb3dac11-af87-42a4-9284-af3a9b9f21ef}, !- Handle
  Air Conditioner Variable Refrigerant Flow 1 HeatingEIRLowPLR, !- Name
  0.3924742025,                           !- Coefficient1 Constant
  0.076016374,                            !- Coefficient2 x
  0.6983235783,                           !- Coefficient3 x**2
  -0.1688407813,                          !- Coefficient4 x**3
  0.5,                                    !- Minimum Value of x
  1;                                      !- Maximum Value of x

OS:Curve:Cubic,
  {4b04ac5b-d286-4852-a403-307eaf015f72}, !- Handle
  Air Conditioner Variable Refrigerant Flow 1 HeatingEIRHiPLR, !- Name
  1,                                      !- Coefficient1 Constant
  0,                                      !- Coefficient2 x
  0,                                      !- Coefficient3 x**2
  0,                                      !- Coefficient4 x**3
  1,                                      !- Minimum Value of x
  1.5;                                    !- Maximum Value of x

OS:Curve:Cubic,
  {da5b2423-c45a-4049-adbd-41d20400b94e}, !- Handle
  Air Conditioner Variable Refrigerant Flow 1 HeatingCombRatio, !- Name
  0.7667196604,                           !- Coefficient1 Constant
  0.2617302019,                           !- Coefficient2 x
  -0.0159110245,                          !- Coefficient3 x**2
  -0.0125388376,                          !- Coefficient4 x**3
  1,                                      !- Minimum Value of x
  1.5;                                    !- Maximum Value of x

OS:Curve:Biquadratic,
  {96b15768-7fff-4edb-8966-09ef959dcffe}, !- Handle
  Air Conditioner Variable Refrigerant Flow 1 CoolingLengthCorrectionFactor, !- Name
  2.0388158625,                           !- Coefficient1 Constant
  -0.0024260645,                          !- Coefficient2 x
  3.5512e-006,                            !- Coefficient3 x**2
  -1.6858129772,                          !- Coefficient4 y
  0.668703358,                            !- Coefficient5 y**2
  -4.5706e-005,                           !- Coefficient6 x*y
  7.62,                                   !- Minimum Value of x
  182.88,                                 !- Maximum Value of x
  0.8,                                    !- Minimum Value of y
  1.5;                                    !- Maximum Value of y

OS:ModelObjectList,
  {974a9945-94be-46d3-a811-66f02f2f1252}, !- Handle
  {edb5e469-5552-49d0-9961-cc2b236eda85}, !- Name
  {92e16c42-4a25-4cec-80c0-258f37fa95cb}; !- Model Object 1

! TrackingID:#[fqfYyk]
OS:ZoneHVAC:TerminalUnit:VariableRefrigerantFlow,
  {92e16c42-4a25-4cec-80c0-258f37fa95cb}, !- Handle
  Zone HVAC Terminal Unit Variable Refrigerant Flow 1, !- Name
  {88583931-43fd-4ccd-b5e5-dd5930f3de7d}, !- Terminal Unit Availability schedule
  ,                                       !- Terminal Unit Air Inlet Node
  ,                                       !- Terminal Unit Air Outlet Node
  autosize,                               !- Supply Air Flow Rate During Cooling Operation {m3/s}
  autosize,                               !- Supply Air Flow Rate When No Cooling is Needed {m3/s}
  autosize,                               !- Supply Air Flow Rate During Heating Operation {m3/s}
  autosize,                               !- Supply Air Flow Rate When No Heating is Needed {m3/s}
  autosize,                               !- Outdoor Air Flow Rate During Cooling Operation {m3/s}
  autosize,                               !- Outdoor Air Flow Rate During Heating Operation {m3/s}
  autosize,                               !- Outdoor Air Flow Rate When No Cooling or Heating is Needed {m3/s}
  {88583931-43fd-4ccd-b5e5-dd5930f3de7d}, !- Supply Air Fan Operating Mode Schedule
  ,                                       !- Supply Air Fan placement
  {64e13fe3-751d-4c60-8db3-0bd0416a4f4d}, !- Supply Air Fan
  ,                                       !- Outside Air Mixer
  {e9eca564-d0e2-4b4d-8394-a9d8c15449de}, !- Cooling Coil
  {1df23822-7d9c-4422-9c16-4156d17e1115}, !- Heating Coil
  30,                                     !- Zone Terminal Unit On Parasitic Electric Energy Use {W}
  20,                                     !- Zone Terminal Unit Off Parasitic Electric Energy Use {W}
  1;                                      !- Rated Total Heating Capacity Sizing Ratio {W/W}

OS:Coil:Cooling:DX:VariableRefrigerantFlow,
  {e9eca564-d0e2-4b4d-8394-a9d8c15449de}, !- Handle
  Zone HVAC Terminal Unit Variable Refrigerant Flow 1 Cooling Coil, !- Name
  {88583931-43fd-4ccd-b5e5-dd5930f3de7d}, !- Availability Schedule
  autosize,                               !- Rated Total Cooling Capacity {W}
  autosize,                               !- Rated Sensible Heat Ratio
  autosize,                               !- Rated Air Flow Rate {m3/s}
  {e22edb0d-6321-4346-bb7c-987125d827b9}, !- Cooling Capacity Ratio Modifier Function of Temperature Curve
  {c937eac7-ee52-41e2-943f-124be5eef97c}; !- Cooling Capacity Modifier Curve Function of Flow Fraction

OS:Curve:Biquadratic,
  {e22edb0d-6321-4346-bb7c-987125d827b9}, !- Handle
  VRFTUCoolCapFT,                         !- Name
  0.0585884077803259,                     !- Coefficient1 Constant
  0.0587396532718384,                     !- Coefficient2 x
  -0.000210274979759697,                  !- Coefficient3 x**2
  0.0109370473889647,                     !- Coefficient4 y
  -0.0001219549,                          !- Coefficient5 y**2
  -0.0005246615,                          !- Coefficient6 x*y
  15,                                     !- Minimum Value of x
  23.89,                                  !- Maximum Value of x
  20,                                     !- Minimum Value of y
  43.33,                                  !- Maximum Value of y
  0.8083,                                 !- Minimum Curve Output
  1.2583;                                 !- Maximum Curve Output

OS:Curve:Quadratic,
  {c937eac7-ee52-41e2-943f-124be5eef97c}, !- Handle
  VRFACCoolCapFFF,                        !- Name
  0.8,                                    !- Coefficient1 Constant
  0.2,                                    !- Coefficient2 x
  0,                                      !- Coefficient3 x**2
  0.5,                                    !- Minimum Value of x
  1.5;                                    !- Maximum Value of x

OS:Coil:Heating:DX:VariableRefrigerantFlow,
  {1df23822-7d9c-4422-9c16-4156d17e1115}, !- Handle
  Zone HVAC Terminal Unit Variable Refrigerant Flow 1 Heating Coil, !- Name
  {88583931-43fd-4ccd-b5e5-dd5930f3de7d}, !- Availability Schedule
  autosize,                               !- Rated Total Heating Capacity {W}
  autosize,                               !- Rated Air Flow Rate {m3/s}
  ,                                       !- Coil Air Inlet Node
  ,                                       !- Coil Air Outlet Node
  {af3cfd59-d057-47c0-9318-0c2f81943cc9}, !- Heating Capacity Ratio Modifier Function of Temperature Curve
  {766a2be5-2740-4a77-9b40-f61f0034192b}; !- Heating Capacity Modifier Function of Flow Fraction Curve

OS:Curve:Biquadratic,
  {af3cfd59-d057-47c0-9318-0c2f81943cc9}, !- Handle
  Coil Heating DX Variable Refrigerant Flow 1 VRFTUHeatCAPFT, !- Name
  0.375443994956127,                      !- Coefficient1 Constant
  0.0668190645147821,                     !- Coefficient2 x
  -0.00194171026482001,                   !- Coefficient3 x**2
  0.0442618420640187,                     !- Coefficient4 y
  -0.0004009578,                          !- Coefficient5 y**2
  -0.0014819801,                          !- Coefficient6 x*y
  21.11,                                  !- Minimum Value of x
  27.22,                                  !- Maximum Value of x
  -15,                                    !- Minimum Value of y
  18.33,                                  !- Maximum Value of y
  0.6074,                                 !- Minimum Curve Output
  1;                                      !- Maximum Curve Output

OS:Curve:Quadratic,
  {766a2be5-2740-4a77-9b40-f61f0034192b}, !- Handle
  Coil Heating DX Variable Refrigerant Flow 1 VRFACCoolCapFFF, !- Name
  0.8,                                    !- Coefficient1 Constant
  0.2,                                    !- Coefficient2 x
  0,                                      !- Coefficient3 x**2
  0.5,                                    !- Minimum Value of x
  1.5;                                    !- Maximum Value of x

OS:Fan:OnOff,
  {64e13fe3-751d-4c60-8db3-0bd0416a4f4d}, !- Handle
  Zone HVAC Terminal Unit Variable Refrigerant Flow 1 Fan, !- Name
  {88583931-43fd-4ccd-b5e5-dd5930f3de7d}, !- Availability Schedule Name
  0.6,                                    !- Fan Efficiency
  300,                                    !- Pressure Rise {Pa}
  autosize,                               !- Maximum Flow Rate {m3/s}
  0.8,                                    !- Motor Efficiency
  1,                                      !- Motor In Airstream Fraction
  ,                                       !- Air Inlet Node Name
  ,                                       !- Air Outlet Node Name
  {22f015fb-218d-42ae-a96c-fa43e71b9acc}, !- Fan Power Ratio Function of Speed Ratio Curve Name
  {631da990-5b9a-4c9c-916d-2d8d3b27ec91}, !- Fan Efficiency Ratio Function of Speed Ratio Curve Name
  ;                                       !- End-Use Subcategory

OS:Curve:Exponent,
  {22f015fb-218d-42ae-a96c-fa43e71b9acc}, !- Handle
  Fan On Off Power Curve,                 !- Name
  1,                                      !- Coefficient1 Constant
  0,                                      !- Coefficient2 Constant
  0,                                      !- Coefficient3 Constant
  0,                                      !- Minimum Value of x
  1,                                      !- Maximum Value of x
  ,                                       !- Minimum Curve Output
  ,                                       !- Maximum Curve Output
  ,                                       !- Input Unit Type for X
  ;                                       !- Output Unit Type

OS:Curve:Cubic,
  {631da990-5b9a-4c9c-916d-2d8d3b27ec91}, !- Handle
  Fan On Off Efficiency Curve,            !- Name
  1,                                      !- Coefficient1 Constant
  0,                                      !- Coefficient2 x
  0,                                      !- Coefficient3 x**2
  0,                                      !- Coefficient4 x**3
  0,                                      !- Minimum Value of x
  1;                                      !- Maximum Value of x

! TrackingID:#[XKqErd]
OS:ThermalZone,
  {fb7d0de9-56ca-490a-834c-b466536c3934}, !- Handle
  Thermal Zone 1,                         !- Name
  ,                                       !- Multiplier
  ,                                       !- Ceiling Height {m}
  ,                                       !- Volume {m3}
  ,                                       !- Floor Area {m2}
  ,                                       !- Zone Inside Convection Algorithm
  ,                                       !- Zone Outside Convection Algorithm
  ,                                       !- Zone Conditioning Equipment List Name
  {929b1052-91f4-4f14-ae22-2702d857331c}, !- Zone Air Inlet Port List
  {6d4f6366-d646-4ff9-99c5-8f7324b52201}, !- Zone Air Exhaust Port List