
OS:Version,
  {89d069f7-03b1-48ab-8f7c-0ecd6035fa6e}, !- Handle
  2.4.0;                                  !- Version Identifier

OS:AirLoopHVAC,
  {185c1d7c-6930-496d-9b5a-dfe9be390b2e}, !- Handle
  Air Loop HVAC 1,                        !- Name
  ,                                       !- Controller List Name
  {a142f633-8e58-445b-ad3f-e5771767ae02}, !- Availability Schedule
  {988ae64d-5a20-4f09-8247-d6c6b1a2742e}, !- Availability Manager List Name
  AutoSize,                               !- Design Supply Air Flow Rate {m3/s}
  ,                                       !- Branch List Name
  ,                                       !- Connector List Name
  {09e48670-d5e3-4e8f-958b-99444e10d92f}, !- Supply Side Inlet Node Name
  {7e8dcde7-c594-46cf-b067-584d194a4c9c}, !- Demand Side Outlet Node Name
  {64ce8f69-f6cc-4431-997c-0339f590ef82}, !- Demand Side Inlet Node A
  {d2f59003-a1a2-4845-ae55-68df66d066c4}, !- Supply Side Outlet Node A
  ,                                       !- Demand Side Inlet Node B
  ,                                       !- Supply Side Outlet Node B
  ,                                       !- Return Air Bypass Flow Temperature Setpoint Schedule Name
  {99eff967-f536-4fad-be89-0ad73b2116ce}, !- Demand Mixer Name
  {0fc199e4-485c-47b3-9ea9-78b5288bcfbe}, !- Demand Splitter A Name
  ,                                       !- Demand Splitter B Name
  ;                                       !- Supply Splitter Name

OS:Node,
  {32907243-7d52-4290-a667-c37d9a3ddc8c}, !- Handle
  Node 1,                                 !- Name
  {09e48670-d5e3-4e8f-958b-99444e10d92f}, !- Inlet Port
  {86da439d-acd7-4f8c-9150-7cf6a28937bf}; !- Outlet Port

OS:Node,
  {c8ec18cd-245d-43c6-88fd-b0fdbdaa4f39}, !- Handle
  Node 2,                                 !- Name
  {86da439d-acd7-4f8c-9150-7cf6a28937bf}, !- Inlet Port
  {d2f59003-a1a2-4845-ae55-68df66d066c4}; !- Outlet Port

OS:Connection,
  {09e48670-d5e3-4e8f-958b-99444e10d92f}, !- Handle
  {da8f8ace-e666-46a0-9eb1-122ec5d33a60}, !- Name
  {185c1d7c-6930-496d-9b5a-dfe9be390b2e}, !- Source Object
  8,                                      !- Outlet Port
  {32907243-7d52-4290-a667-c37d9a3ddc8c}, !- Target Object
  2;                                      !- Inlet Port

OS:Connection,
  {86da439d-acd7-4f8c-9150-7cf6a28937bf}, !- Handle
  {0dffb5a1-d892-4abf-a93d-b381b21be8dc}, !- Name
  {32907243-7d52-4290-a667-c37d9a3ddc8c}, !- Source Object
  3,                                      !- Outlet Port
  {c8ec18cd-245d-43c6-88fd-b0fdbdaa4f39}, !- Target Object
  2;                                      !- Inlet Port

OS:Connection,
  {d2f59003-a1a2-4845-ae55-68df66d066c4}, !- Handle
  {f729904a-2d4a-481a-b058-9a96b06595e5}, !- Name
  {c8ec18cd-245d-43c6-88fd-b0fdbdaa4f39}, !- Source Object
  3,                                      !- Outlet Port
  {185c1d7c-6930-496d-9b5a-dfe9be390b2e}, !- Target Object
  11;                                     !- Inlet Port

OS:Node,
  {8c2c0b46-a345-433e-b44b-088999e20faf}, !- Handle
  Node 3,                                 !- Name
  {64ce8f69-f6cc-4431-997c-0339f590ef82}, !- Inlet Port
  {eafa7cfd-b8a4-4105-b158-0f3bfdb829ab}; !- Outlet Port

OS:Node,
  {b8d1cfd4-74a5-4468-9a93-cd07efcb64fd}, !- Handle
  Node 4,                                 !- Name
  {c547cfff-40d2-4379-9e5b-6599e44a30b7}, !- Inlet Port
  {7e8dcde7-c594-46cf-b067-584d194a4c9c}; !- Outlet Port

OS:Node,
  {a733e6df-5122-493a-80f9-228919ac79fd}, !- Handle
  Node 5,                                 !- Name
  {1fdcaf7f-c3a2-41fd-8e88-d3834b1fe79f}, !- Inlet Port
  {b772a83e-abc8-498a-8684-82a00e4efeb7}; !- Outlet Port

OS:Connection,
  {64ce8f69-f6cc-4431-997c-0339f590ef82}, !- Handle
  {b1f78e0a-7998-427d-8969-0380944a7c02}, !- Name
  {185c1d7c-6930-496d-9b5a-dfe9be390b2e}, !- Source Object
  10,                                     !- Outlet Port
  {8c2c0b46-a345-433e-b44b-088999e20faf}, !- Target Object
  2;                                      !- Inlet Port

OS:Connection,
  {7e8dcde7-c594-46cf-b067-584d194a4c9c}, !- Handle
  {e3cd61e6-3874-4357-ac34-adc53919b3a8}, !- Name
  {b8d1cfd4-74a5-4468-9a93-cd07efcb64fd}, !- Source Object
  3,                                      !- Outlet Port
  {185c1d7c-6930-496d-9b5a-dfe9be390b2e}, !- Target Object
  9;                                      !- Inlet Port

OS:AirLoopHVAC:ZoneSplitter,
  {0fc199e4-485c-47b3-9ea9-78b5288bcfbe}, !- Handle
  Air Loop HVAC Zone Splitter 1,          !- Name
  {eafa7cfd-b8a4-4105-b158-0f3bfdb829ab}, !- Inlet Node Name
  {e4fed2ec-deda-4a64-a66e-23c24fac7a80}; !- Outlet Node Name 1

OS:AirLoopHVAC:ZoneMixer,
  {99eff967-f536-4fad-be89-0ad73b2116ce}, !- Handle
  Air Loop HVAC Zone Mixer 1,             !- Name
  {c547cfff-40d2-4379-9e5b-6599e44a30b7}, !- Outlet Node Name
  {ceb6508c-2417-42cd-8d0c-f89cdd9d9ccb}; !- Inlet Node Name 1

OS:Connection,
  {eafa7cfd-b8a4-4105-b158-0f3bfdb829ab}, !- Handle
  {6c0b8f13-abd2-4dd6-b8bf-1eea536de864}, !- Name
  {8c2c0b46-a345-433e-b44b-088999e20faf}, !- Source Object
  3,                                      !- Outlet Port
  {0fc199e4-485c-47b3-9ea9-78b5288bcfbe}, !- Target Object
  2;                                      !- Inlet Port

OS:Connection,
  {c547cfff-40d2-4379-9e5b-6599e44a30b7}, !- Handle
  {4fe85726-c794-483c-9f4a-7e177f142bf7}, !- Name
  {99eff967-f536-4fad-be89-0ad73b2116ce}, !- Source Object
  2,                                      !- Outlet Port
  {b8d1cfd4-74a5-4468-9a93-cd07efcb64fd}, !- Target Object
  2;                                      !- Inlet Port

OS:Sizing:System,
  {9ecc91b7-5c0d-44f5-b3e8-93301a5c3839}, !- Handle
  {185c1d7c-6930-496d-9b5a-dfe9be390b2e}, !- AirLoop Name
  Sensible,                               !- Type of Load to Size On
  Autosize,                               !- Design Outdoor Air Flow Rate {m3/s}
  0.3,                                    !- Minimum System Air Flow Ratio
  7,                                      !- Preheat Design Temperature {C}
  0.008,                                  !- Preheat Design Humidity Ratio {kg-H2O/kg-Air}
  12.8,                                   !- Precool Design Temperature {C}
  0.008,                                  !- Precool Design Humidity Ratio {kg-H2O/kg-Air}
  12.8,                                   !- Central Cooling Design Supply Air Temperature {C}
  16.7,                                   !- Central Heating Design Supply Air Temperature {C}
  NonCoincident,                          !- Sizing Option
  Yes,                                    !- 100% Outdoor Air in Cooling
  Yes,                                    !- 100% Outdoor Air in Heating
  0.0085,                                 !- Central Cooling Design Supply Air Humidity Ratio {kg-H2O/kg-Air}
  0.008,                                  !- Central Heating Design Supply Air Humidity Ratio {kg-H2O/kg-Air}
  DesignDay,                              !- Cooling Design Air Flow Method
  0,                                      !- Cooling Design Air Flow Rate {m3/s}
  DesignDay,                              !- Heating Design Air Flow Method
  0,                                      !- Heating Design Air Flow Rate {m3/s}
  ZoneSum,                                !- System Outdoor Air Method
  1,                                      !- Zone Maximum Outdoor Air Fraction {dimensionless}
  0.0099676501,                           !- Cooling Supply Air Flow Rate Per Floor Area {m3/s-m2}
  1,                                      !- Cooling Fraction of Autosized Cooling Supply Air Flow Rate
  3.9475456e-005,                         !- Cooling Supply Air Flow Rate Per Unit Cooling Capacity {m3/s-W}
  0.0099676501,                           !- Heating Supply Air Flow Rate Per Floor Area {m3/s-m2}
  1,                                      !- Heating Fraction of Autosized Heating Supply Air Flow Rate
  1,                                      !- Heating Fraction of Autosized Cooling Supply Air Flow Rate
  3.1588213e-005,                         !- Heating Supply Air Flow Rate Per Unit Heating Capacity {m3/s-W}
  CoolingDesignCapacity,                  !- Cooling Design Capacity Method
  autosize,                               !- Cooling Design Capacity {W}
  234.7,                                  !- Cooling Design Capacity Per Floor Area {W/m2}
  1,                                      !- Fraction of Autosized Cooling Design Capacity
  HeatingDesignCapacity,                  !- Heating Design Capacity Method
  autosize,                               !- Heating Design Capacity {W}
  157,                                    !- Heating Design Capacity Per Floor Area {W/m2}
  1,                                      !- Fraction of Autosized Heating Design Capacity
  OnOff;                                  !- Central Cooling Capacity Control Method

OS:Schedule:Constant,
  {a142f633-8e58-445b-ad3f-e5771767ae02}, !- Handle
  Always On Discrete,                     !- Name
  {8ddb38af-7a8c-4967-9cd8-b2cf5f264dec}, !- Schedule Type Limits Name
  1;                                      !- Value

OS:ScheduleTypeLimits,
  {8ddb38af-7a8c-4967-9cd8-b2cf5f264dec}, !- Handle
  OnOff,                                  !- Name
  0,                                      !- Lower Limit Value
  1,                                      !- Upper Limit Value
  Discrete,                               !- Numeric Type
  Availability;                           !- Unit Type

OS:AvailabilityManagerAssignmentList,
  {988ae64d-5a20-4f09-8247-d6c6b1a2742e}, !- Handle
  Air Loop HVAC 1 AvailabilityManagerAssignmentList; !- Name

OS:ThermalZone,
  {a3f32b85-017e-441e-8087-1c0c0caf4132}, !- Handle
  Thermal Zone 1,                         !- Name
  ,                                       !- Multiplier
  ,                                       !- Ceiling Height {m}
  ,                                       !- Volume {m3}
  ,                                       !- Floor Area {m2}
  ,                                       !- Zone Inside Convection Algorithm
  ,                                       !- Zone Outside Convection Algorithm
  ,                                       !- Zone Conditioning Equipment List Name
  {84c700d1-a5fd-4524-895a-2a542cbfe00e}, !- Zone Air Inlet Port List
  {d384be62-79f8-4c44-a2fa-a75a7c69ba3f}, !- Zone Air Exhaust Port List
  {caa1007b-67ef-4968-bc81-da1523001b1c}, !- Zone Air Node Name
  {34921e4a-c580-4fb3-a63c-8f90e00d8e5d}, !- Zone Return Air Node Name
  ,                                       !- Primary Daylighting Control Name
  ,                                       !- Fraction of Zone Controlled by Primary Daylighting Control
  ,                                       !- Secondary Daylighting Control Name
  ,                                       !- Fraction of Zone Controlled by Secondary Daylighting Control
  ,                                       !- Illuminance Map Name
  ,                                       !- Group Rendering Name
  ,                                       !- Thermostat Name
  No;                                     !- Use Ideal Air Loads

OS:Node,
  {8be8f0ad-078b-4c85-a1fe-76a429a480e1}, !- Handle
  Node 6,                                 !- Name
  {caa1007b-67ef-4968-bc81-da1523001b1c}, !- Inlet Port
  ;                                       !- Outlet Port

OS:Connection,
  {caa1007b-67ef-4968-bc81-da1523001b1c}, !- Handle
  {e73354c0-f2ef-4b75-bf59-f296f0e3a931}, !- Name
  {a3f32b85-017e-441e-8087-1c0c0caf4132}, !- Source Object
  11,                                     !- Outlet Port
  {8be8f0ad-078b-4c85-a1fe-76a429a480e1}, !- Target Object
  2;                                      !- Inlet Port

OS:PortList,
  {84c700d1-a5fd-4524-895a-2a542cbfe00e}, !- Handle
  {34bd2139-5f91-4b73-ba52-fa9c4b88be75}, !- Name
  {a3f32b85-017e-441e-8087-1c0c0caf4132}, !- HVAC Component
  {b772a83e-abc8-498a-8684-82a00e4efeb7}; !- Port 1

OS:PortList,
  {d384be62-79f8-4c44-a2fa-a75a7c69ba3f}, !- Handle
  {0549a027-778a-4aff-85fc-08f263b5c915}, !- Name
  {a3f32b85-017e-441e-8087-1c0c0caf4132}; !- HVAC Component

OS:Sizing:Zone,
  {54104b33-3bd0-4000-ae16-594fff005bce}, !- Handle
  {a3f32b85-017e-441e-8087-1c0c0caf4132}, !- Zone or ZoneList Name
  SupplyAirTemperature,                   !- Zone Cooling Design Supply Air Temperature Input Method
  14,                                     !- Zone Cooling Design Supply Air Temperature {C}
  11.11,                                  !- Zone Cooling Design Supply Air Temperature Difference {deltaC}
  SupplyAirTemperature,                   !- Zone Heating Design Supply Air Temperature Input Method
  40,                                     !- Zone Heating Design Supply Air Temperature {C}
  11.11,                                  !- Zone Heating Design Supply Air Temperature Difference {deltaC}
  0.0085,                                 !- Zone Cooling Design Supply Air Humidity Ratio {kg-H2O/kg-air}
  0.008,                                  !- Zone Heating Design Supply Air Humidity Ratio {kg-H2O/kg-air}
  ,                                       !- Zone Heating Sizing Factor
  ,                                       !- Zone Cooling Sizing Factor
  DesignDay,                              !- Cooling Design Air Flow Method
  ,                                       !- Cooling Design Air Flow Rate {m3/s}
  ,                                       !- Cooling Minimum Air Flow per Zone Floor Area {m3/s-m2}
  ,                                       !- Cooling Minimum Air Flow {m3/s}
  ,                                       !- Cooling Minimum Air Flow Fraction
  DesignDay,                              !- Heating Design Air Flow Method
  ,                                       !- Heating Design Air Flow Rate {m3/s}
  ,                                       !- Heating Maximum Air Flow per Zone Floor Area {m3/s-m2}
  ,                                       !- Heating Maximum Air Flow {m3/s}
  ,                                       !- Heating Maximum Air Flow Fraction
  ,                                       !- Design Zone Air Distribution Effectiveness in Cooling Mode
  ,                                       !- Design Zone Air Distribution Effectiveness in Heating Mode
  No,                                     !- Account for Dedicated Outdoor Air System
  NeutralSupplyAir,                       !- Dedicated Outdoor Air System Control Strategy
  autosize,                               !- Dedicated Outdoor Air Low Setpoint Temperature for Design {C}
  autosize;                               !- Dedicated Outdoor Air High Setpoint Temperature for Design {C}

OS:ZoneHVAC:EquipmentList,
  {a13538b7-7559-4b92-bdc2-2a97dbc49117}, !- Handle
  Zone HVAC Equipment List 1,             !- Name
  {a3f32b85-017e-441e-8087-1c0c0caf4132}, !- Thermal Zone
  {b2f1408f-30b6-4f20-8d3a-8c710e3b1cff}, !- Zone Equipment 1
  1,                                      !- Zone Equipment Cooling Sequence 1
  1;                                      !- Zone Equipment Heating or No-Load Sequence 1

OS:Sizing:Zone,
  {8506c98c-8c41-4567-9a7d-6d70f2e78b47}, !- Handle
  {a3f32b85-017e-441e-8087-1c0c0caf4132}, !- Zone or ZoneList Name
  SupplyAirTemperature,                   !- Zone Cooling Design Supply Air Temperature Input Method
  14,                                     !- Zone Cooling Design Supply Air Temperature {C}
  11.11,                                  !- Zone Cooling Design Supply Air Temperature Difference {deltaC}
  SupplyAirTemperature,                   !- Zone Heating Design Supply Air Temperature Input Method
  40,                                     !- Zone Heating Design Supply Air Temperature {C}
  11.11,                                  !- Zone Heating Design Supply Air Temperature Difference {deltaC}
  0.0085,                                 !- Zone Cooling Design Supply Air Humidity Ratio {kg-H2O/kg-air}
  0.008,                                  !- Zone Heating Design Supply Air Humidity Ratio {kg-H2O/kg-air}
  ,                                       !- Zone Heating Sizing Factor
  ,                                       !- Zone Cooling Sizing Factor
  DesignDay,                              !- Cooling Design Air Flow Method
  ,                                       !- Cooling Design Air Flow Rate {m3/s}
  ,                                       !- Cooling Minimum Air Flow per Zone Floor Area {m3/s-m2}
  ,                                       !- Cooling Minimum Air Flow {m3/s}
  ,                                       !- Cooling Minimum Air Flow Fraction
  DesignDay,                              !- Heating Design Air Flow Method
  ,                                       !- Heating Design Air Flow Rate {m3/s}
  ,                                       !- Heating Maximum Air Flow per Zone Floor Area {m3/s-m2}
  ,                                       !- Heating Maximum Air Flow {m3/s}
  ,                                       !- Heating Maximum Air Flow Fraction
  ,                                       !- Design Zone Air Distribution Effectiveness in Cooling Mode
  ,                                       !- Design Zone Air Distribution Effectiveness in Heating Mode
  No,                                     !- Account for Dedicated Outdoor Air System
  NeutralSupplyAir,                       !- Dedicated Outdoor Air System Control Strategy
  autosize,                               !- Dedicated Outdoor Air Low Setpoint Temperature for Design {C}
  autosize;                               !- Dedicated Outdoor Air High Setpoint Temperature for Design {C}

OS:AirTerminal:SingleDuct:Uncontrolled,
  {b2f1408f-30b6-4f20-8d3a-8c710e3b1cff}, !- Handle
  Air Terminal Single Duct Uncontrolled 1, !- Name
  {a142f633-8e58-445b-ad3f-e5771767ae02}, !- Availability Schedule Name
  {e4fed2ec-deda-4a64-a66e-23c24fac7a80}, !- Inlet Air Node Name
  {1fdcaf7f-c3a2-41fd-8e88-d3834b1fe79f}, !- Zone Supply Air Node Name
  AutoSize;                               !- Maximum Air Flow Rate {m3/s}

OS:Node,
  {b91818eb-3bc3-4eed-a6cd-d379dbe9634a}, !- Handle
  Node 7,                                 !- Name
  {34921e4a-c580-4fb3-a63c-8f90e00d8e5d}, !- Inlet Port
  {ceb6508c-2417-42cd-8d0c-f89cdd9d9ccb}; !- Outlet Port

OS:Connection,
  {b772a83e-abc8-498a-8684-82a00e4efeb7}, !- Handle
  {10e1f2e8-34b1-427f-8474-4248ac98c3c3}, !- Name
  {a733e6df-5122-493a-80f9-228919ac79fd}, !- Source Object
  3,                                      !- Outlet Port
  {84c700d1-a5fd-4524-895a-2a542cbfe00e}, !- Target Object
  3;                                      !- Inlet Port

OS:Connection,
  {34921e4a-c580-4fb3-a63c-8f90e00d8e5d}, !- Handle
  {82bbb171-e2c0-4846-b43e-7a053f94bdd3}, !- Name
  {a3f32b85-017e-441e-8087-1c0c0caf4132}, !- Source Object
  12,                                     !- Outlet Port
  {b91818eb-3bc3-4eed-a6cd-d379dbe9634a}, !- Target Object
  2;                                      !- Inlet Port

OS:Connection,
  {ceb6508c-2417-42cd-8d0c-f89cdd9d9ccb}, !- Handle
  {d85f1e62-f055-41e3-b1ee-d52de1198c55}, !- Name
  {b91818eb-3bc3-4eed-a6cd-d379dbe9634a}, !- Source Object
  3,                                      !- Outlet Port
  {99eff967-f536-4fad-be89-0ad73b2116ce}, !- Target Object
  3;                                      !- Inlet Port

OS:Connection,
  {e4fed2ec-deda-4a64-a66e-23c24fac7a80}, !- Handle
  {5d339062-f2a8-4f70-854c-35b46159a7f9}, !- Name
  {0fc199e4-485c-47b3-9ea9-78b5288bcfbe}, !- Source Object
  3,                                      !- Outlet Port
  {b2f1408f-30b6-4f20-8d3a-8c710e3b1cff}, !- Target Object
  3;                                      !- Inlet Port

OS:Connection,
  {1fdcaf7f-c3a2-41fd-8e88-d3834b1fe79f}, !- Handle
  {8e2ab61b-d97a-4270-8aca-0f8b983b4574}, !- Name
  {b2f1408f-30b6-4f20-8d3a-8c710e3b1cff}, !- Source Object
  4,                                      !- Outlet Port
  {a733e6df-5122-493a-80f9-228919ac79fd}, !- Target Object
  2;                                      !- Inlet Port

