
OS:Version,
  {67b674c5-984b-47c5-8e71-a5a690a20991}, !- Handle
  2.4.0;                                  !- Version Identifier

OS:Site,
  {e91ebcd8-a797-401d-b5ca-9368a62b18cc}, !- Handle
  Site 1,                                 !- Name
  ,                                       !- Latitude {deg}
  ,                                       !- Longitude {deg}
  ,                                       !- Time Zone {hr}
  ,                                       !- Elevation {m}
  ;                                       !- Terrain

OS:YearDescription,
  {9d39fc4d-d9fc-4a34-a55f-d482d822b5d8}; !- Handle

OS:ClimateZones,
  {f79d1017-8712-405b-af65-f0692cbf1d83}, !- Handle
  ,                                       !- Active Institution
  ,                                       !- Active Year
  ,                                       !- Climate Zone Institution Name 1
  ,                                       !- Climate Zone Document Name 1
  ,                                       !- Climate Zone Document Year 1
  ,                                       !- Climate Zone Value 1
  CEC,                                    !- Climate Zone Institution Name 2
  California Climate Zone Descriptions,   !- Climate Zone Document Name 2
  1995,                                   !- Climate Zone Document Year 2
  ;                                       !- Climate Zone Value 2

OS:Building,
  {410e3865-eb4f-4996-8da8-14fae9ee71e6}, !- Handle
  Building 1,                             !- Name
  ,                                       !- Building Sector Type
  ,                                       !- North Axis {deg}
  ,                                       !- Nominal Floor to Floor Height {m}
  ,                                       !- Space Type Name
  ,                                       !- Default Construction Set Name
  ;                                       !- Default Schedule Set Name

OS:Facility,
  {7b7e570a-9003-421c-80e2-dd89e5ce451b}; !- Handle

OS:SimulationControl,
  {4d7d45c9-17a4-46dc-b2f7-e67950f1503e}; !- Handle

OS:Sizing:Parameters,
  {61f52f9d-2898-4fcf-827f-470b8a8b7771}, !- Handle
  1.25,                                   !- Heating Sizing Factor
  1.15;                                   !- Cooling Sizing Factor

OS:Timestep,
  {59d3ff4b-eeb0-4d55-a7e7-f90c56d0d909}, !- Handle
  6;                                      !- Number of Timesteps per Hour

OS:ShadowCalculation,
  {be56b413-83e7-47c4-a373-60c9449ae69c}, !- Handle
  20,                                     !- Calculation Frequency
  15000;                                  !- Maximum Figures in Shadow Overlap Calculations

OS:HeatBalanceAlgorithm,
  {e0246c73-72b7-4fc4-8a39-6e7bebee33fa}, !- Handle
  ConductionTransferFunction,             !- Algorithm
  200;                                    !- Surface Temperature Upper Limit {C}

OS:RunPeriod,
  {7d67e448-666e-4686-bc55-a56e55495ce0}, !- Handle
  Run Period 1,                           !- Name
  1,                                      !- Begin Month
  1,                                      !- Begin Day of Month
  12,                                     !- End Month
  31,                                     !- End Day of Month
  ,                                       !- Use Weather File Holidays and Special Days
  ,                                       !- Use Weather File Daylight Saving Period
  ,                                       !- Apply Weekend Holiday Rule
  ,                                       !- Use Weather File Rain Indicators
  ,                                       !- Use Weather File Snow Indicators
  ;                                       !- Number of Times Runperiod to be Repeated

OS:LifeCycleCost:Parameters,
  {f5a78c74-b81d-4933-8681-2c04305fb8e7}, !- Handle
  ,                                       !- Analysis Type
  ,                                       !- Discounting Convention
  ,                                       !- Inflation Approach
  ,                                       !- Real Discount Rate
  ,                                       !- Nominal Discount Rate
  ,                                       !- Inflation
  ,                                       !- Base Date Month
  ,                                       !- Base Date Year
  ,                                       !- Service Date Month
  ,                                       !- Service Date Year
  ;                                       !- Length of Study Period in Years

OS:Schedule:Constant,
  {92a6064e-907a-4a36-980b-f18e69962086}, !- Handle
  Always On Discrete,                     !- Name
  {316b503c-4fbb-473c-a66c-cf1f25cd61dd}, !- Schedule Type Limits Name
  1;                                      !- Value

OS:ScheduleTypeLimits,
  {316b503c-4fbb-473c-a66c-cf1f25cd61dd}, !- Handle
  OnOff,                                  !- Name
  0,                                      !- Lower Limit Value
  1,                                      !- Upper Limit Value
  Discrete,                               !- Numeric Type
  Availability;                           !- Unit Type

OS:Schedule:Ruleset,
  {381d0d9c-ab73-403d-b8f8-e2847324557f}, !- Handle
  Deck_Temperature,                       !- Name
  {14ceed1e-ff8e-48e9-acf0-16451fe1385a}, !- Schedule Type Limits Name
  {62136f87-adbd-4912-b547-de4830af7ad0}, !- Default Day Schedule Name
  {a4a5c6b6-5ac0-476a-814d-4a2e1aaa68f6}, !- Summer Design Day Schedule Name
  {62e4210b-e25c-42d9-9a2b-e8c0faa6b8ed}; !- Winter Design Day Schedule Name

OS:Schedule:Day,
  {62136f87-adbd-4912-b547-de4830af7ad0}, !- Handle
  Deck_Temperature_Default,               !- Name
  {14ceed1e-ff8e-48e9-acf0-16451fe1385a}, !- Schedule Type Limits Name
  ,                                       !- Interpolate to Timestep
  24,                                     !- Hour 1
  0,                                      !- Minute 1
  12.8;                                   !- Value Until Time 1

OS:Schedule:Day,
  {a4a5c6b6-5ac0-476a-814d-4a2e1aaa68f6}, !- Handle
  Deck_Temperature_Summer_Design_Day,     !- Name
  {14ceed1e-ff8e-48e9-acf0-16451fe1385a}, !- Schedule Type Limits Name
  ,                                       !- Interpolate to Timestep
  24,                                     !- Hour 1
  0,                                      !- Minute 1
  12.8;                                   !- Value Until Time 1

OS:Schedule:Day,
  {62e4210b-e25c-42d9-9a2b-e8c0faa6b8ed}, !- Handle
  Deck_Temperature_Winter_Design_Day,     !- Name
  {14ceed1e-ff8e-48e9-acf0-16451fe1385a}, !- Schedule Type Limits Name
  ,                                       !- Interpolate to Timestep
  24,                                     !- Hour 1
  0,                                      !- Minute 1
  12.8;                                   !- Value Until Time 1

OS:Schedule:Ruleset,
  {9fa532a9-965b-4567-8367-23212146dd8d}, !- Handle
  Hot_Water_Temperature,                  !- Name
  {14ceed1e-ff8e-48e9-acf0-16451fe1385a}, !- Schedule Type Limits Name
  {85cf0797-c2bf-41b8-95b8-ac6fc3858064}, !- Default Day Schedule Name
  {1c792697-9724-4b58-8ada-5694321ba3d4}, !- Summer Design Day Schedule Name
  {dc1a2af6-4f6f-4c1c-9cb9-f440d7cf74c4}; !- Winter Design Day Schedule Name

OS:Schedule:Day,
  {85cf0797-c2bf-41b8-95b8-ac6fc3858064}, !- Handle
  Hot_Water_Temperature_Default,          !- Name
  {14ceed1e-ff8e-48e9-acf0-16451fe1385a}, !- Schedule Type Limits Name
  ,                                       !- Interpolate to Timestep
  24,                                     !- Hour 1
  0,                                      !- Minute 1
  67;                                     !- Value Until Time 1

OS:Schedule:Day,
  {1c792697-9724-4b58-8ada-5694321ba3d4}, !- Handle
  Hot_Water_Temperature_Summer_Design_Day, !- Name
  {14ceed1e-ff8e-48e9-acf0-16451fe1385a}, !- Schedule Type Limits Name
  ,                                       !- Interpolate to Timestep
  24,                                     !- Hour 1
  0,                                      !- Minute 1
  67;                                     !- Value Until Time 1

OS:Schedule:Day,
  {dc1a2af6-4f6f-4c1c-9cb9-f440d7cf74c4}, !- Handle
  Hot_Water_Temperature_Winter_Design_Day, !- Name
  {14ceed1e-ff8e-48e9-acf0-16451fe1385a}, !- Schedule Type Limits Name
  ,                                       !- Interpolate to Timestep
  24,                                     !- Hour 1
  0,                                      !- Minute 1
  67;                                     !- Value Until Time 1

OS:Schedule:Ruleset,
  {8c2f8af8-dfce-4bf8-88e6-acba2d4b2638}, !- Handle
  Chilled_Water_Temperature,              !- Name
  ,                                       !- Schedule Type Limits Name
  {2151c501-f96a-4978-b7d7-3367dc75fd48}, !- Default Day Schedule Name
  {b9fdd691-ed42-4e26-ba39-838cd82e37fb}, !- Summer Design Day Schedule Name
  {3a1605a0-b905-478f-ba5b-72d7db38b792}; !- Winter Design Day Schedule Name

OS:Schedule:Day,
  {2151c501-f96a-4978-b7d7-3367dc75fd48}, !- Handle
  Chilled_Water_Temperature_Default,      !- Name
  ,                                       !- Schedule Type Limits Name
  ,                                       !- Interpolate to Timestep
  24,                                     !- Hour 1
  0,                                      !- Minute 1
  6.7;                                    !- Value Until Time 1

OS:Schedule:Day,
  {b9fdd691-ed42-4e26-ba39-838cd82e37fb}, !- Handle
  Chilled_Water_Temperature_Summer_Design_Day, !- Name
  ,                                       !- Schedule Type Limits Name
  ,                                       !- Interpolate to Timestep
  24,                                     !- Hour 1
  0,                                      !- Minute 1
  6.7;                                    !- Value Until Time 1

OS:Schedule:Day,
  {3a1605a0-b905-478f-ba5b-72d7db38b792}, !- Handle
  Chilled_Water_Temperature_Winter_Design_Day, !- Name
  ,                                       !- Schedule Type Limits Name
  ,                                       !- Interpolate to Timestep
  24,                                     !- Hour 1
  0,                                      !- Minute 1
  6.7;                                    !- Value Until Time 1

OS:AirLoopHVAC,
  {6a7caa05-3cc5-4811-a53f-733ddc02eee2}, !- Handle
  Packaged Rooftop VAV with Reheat,       !- Name
  ,                                       !- Controller List Name
  {92a6064e-907a-4a36-980b-f18e69962086}, !- Availability Schedule
  {dca6e65e-6436-4d68-a7f4-cf1d1d1e8dca}, !- Availability Manager List Name
  AutoSize,                               !- Design Supply Air Flow Rate {m3/s}
  ,                                       !- Branch List Name
  ,                                       !- Connector List Name
  {ab1ac687-ab56-4621-8fb7-97ba8195d78e}, !- Supply Side Inlet Node Name
  {ab2f656a-e7a9-44fc-a5e7-caa18c03278b}, !- Demand Side Outlet Node Name
  {cee04a02-1ea5-49fe-a12f-ed6ba3b4ee51}, !- Demand Side Inlet Node A
  {af86e203-6bed-4436-9b6d-13be92bec25c}, !- Supply Side Outlet Node A
  ,                                       !- Demand Side Inlet Node B
  ,                                       !- Supply Side Outlet Node B
  ,                                       !- Return Air Bypass Flow Temperature Setpoint Schedule Name
  {778b8543-29fb-4222-9667-e6006d2a1d9d}, !- Demand Mixer Name
  {981d2050-f163-4e31-b629-3940e3aa76f5}, !- Demand Splitter A Name
  ,                                       !- Demand Splitter B Name
  ;                                       !- Supply Splitter Name

OS:Node,
  {5d9c6d47-074a-4527-9e44-02b9d63b0921}, !- Handle
  Node 1,                                 !- Name
  {ab1ac687-ab56-4621-8fb7-97ba8195d78e}, !- Inlet Port
  {4ed33dcf-db8a-4418-a260-6b76540e04f1}; !- Outlet Port

OS:Node,
  {a43e2b79-8062-4ebd-b096-5e3560f772e0}, !- Handle
  Node 2,                                 !- Name
  {80bcc0e7-073c-4c20-8f82-62b81e183fb8}, !- Inlet Port
  {af86e203-6bed-4436-9b6d-13be92bec25c}; !- Outlet Port

OS:Connection,
  {ab1ac687-ab56-4621-8fb7-97ba8195d78e}, !- Handle
  {ce6ede74-7546-4ab4-bcd4-f60bafcdbd2a}, !- Name
  {6a7caa05-3cc5-4811-a53f-733ddc02eee2}, !- Source Object
  8,                                      !- Outlet Port
  {5d9c6d47-074a-4527-9e44-02b9d63b0921}, !- Target Object
  2;                                      !- Inlet Port

OS:Connection,
  {af86e203-6bed-4436-9b6d-13be92bec25c}, !- Handle
  {3b6d74f2-12dd-46f6-bf0b-17c65de392f4}, !- Name
  {a43e2b79-8062-4ebd-b096-5e3560f772e0}, !- Source Object
  3,                                      !- Outlet Port
  {6a7caa05-3cc5-4811-a53f-733ddc02eee2}, !- Target Object
  11;                                     !- Inlet Port

OS:Node,
  {9f313e14-b31d-4ef6-b510-6fed81d022c1}, !- Handle
  Node 3,                                 !- Name
  {cee04a02-1ea5-49fe-a12f-ed6ba3b4ee51}, !- Inlet Port
  {6e374a17-d0f8-47ff-bb7b-d4ac636da2e6}; !- Outlet Port

OS:Node,
  {e036058c-5551-42bb-88bc-571afdb95913}, !- Handle
  Node 4,                                 !- Name
  {6f71f823-ba08-401b-bd71-53803d3b353d}, !- Inlet Port
  {ab2f656a-e7a9-44fc-a5e7-caa18c03278b}; !- Outlet Port

OS:Node,
  {868e7b45-f2e9-4c86-8c20-cea0717e5d58}, !- Handle
  Node 5,                                 !- Name
  {164d1113-e8f6-4189-898b-83a636219f32}, !- Inlet Port
  {3396d56d-d73c-42a3-893f-6abb0a1df80f}; !- Outlet Port

OS:Connection,
  {cee04a02-1ea5-49fe-a12f-ed6ba3b4ee51}, !- Handle
  {555f6d00-8c81-4e30-956b-e141b022dbb9}, !- Name
  {6a7caa05-3cc5-4811-a53f-733ddc02eee2}, !- Source Object
  10,                                     !- Outlet Port
  {9f313e14-b31d-4ef6-b510-6fed81d022c1}, !- Target Object
  2;                                      !- Inlet Port

OS:Connection,
  {ab2f656a-e7a9-44fc-a5e7-caa18c03278b}, !- Handle
  {088ed15c-994b-419b-b831-f04044ae80c2}, !- Name
  {e036058c-5551-42bb-88bc-571afdb95913}, !- Source Object
  3,                                      !- Outlet Port
  {6a7caa05-3cc5-4811-a53f-733ddc02eee2}, !- Target Object
  9;                                      !- Inlet Port

OS:AirLoopHVAC:ZoneSplitter,
  {981d2050-f163-4e31-b629-3940e3aa76f5}, !- Handle
  Air Loop HVAC Zone Splitter 1,          !- Name
  {6e374a17-d0f8-47ff-bb7b-d4ac636da2e6}, !- Inlet Node Name
  {097da193-a4a2-4fa3-ac87-219fc459937c}; !- Outlet Node Name 1

OS:AirLoopHVAC:ZoneMixer,
  {778b8543-29fb-4222-9667-e6006d2a1d9d}, !- Handle
  Air Loop HVAC Zone Mixer 1,             !- Name
  {6f71f823-ba08-401b-bd71-53803d3b353d}, !- Outlet Node Name
  {3396d56d-d73c-42a3-893f-6abb0a1df80f}; !- Inlet Node Name 1

OS:Connection,
  {6e374a17-d0f8-47ff-bb7b-d4ac636da2e6}, !- Handle
  {e7143660-9550-40c9-b2fd-bfa6ee7e43a3}, !- Name
  {9f313e14-b31d-4ef6-b510-6fed81d022c1}, !- Source Object
  3,                                      !- Outlet Port
  {981d2050-f163-4e31-b629-3940e3aa76f5}, !- Target Object
  2;                                      !- Inlet Port

OS:Connection,
  {3396d56d-d73c-42a3-893f-6abb0a1df80f}, !- Handle
  {24853109-eb46-4cd8-8e4c-921ff44b0730}, !- Name
  {868e7b45-f2e9-4c86-8c20-cea0717e5d58}, !- Source Object
  3,                                      !- Outlet Port
  {778b8543-29fb-4222-9667-e6006d2a1d9d}, !- Target Object
  3;                                      !- Inlet Port

OS:Connection,
  {6f71f823-ba08-401b-bd71-53803d3b353d}, !- Handle
  {bb63632c-6583-4a3c-9bbb-2b2f16a1ecf0}, !- Name
  {778b8543-29fb-4222-9667-e6006d2a1d9d}, !- Source Object
  2,                                      !- Outlet Port
  {e036058c-5551-42bb-88bc-571afdb95913}, !- Target Object
  2;                                      !- Inlet Port

OS:Sizing:System,
  {db16f31a-dfa3-427c-bf66-4edbd17c0cea}, !- Handle
  {6a7caa05-3cc5-4811-a53f-733ddc02eee2}, !- AirLoop Name
  Sensible,                               !- Type of Load to Size On
  Autosize,                               !- Design Outdoor Air Flow Rate {m3/s}
  0.3,                                    !- Minimum System Air Flow Ratio
  7,                                      !- Preheat Design Temperature {C}
  0.008,                                  !- Preheat Design Humidity Ratio {kg-H2O/kg-Air}
  12.8,                                   !- Precool Design Temperature {C}
  0.008,                                  !- Precool Design Humidity Ratio {kg-H2O/kg-Air}
  12.8,                                   !- Central Cooling Design Supply Air Temperature {C}
  12.8,                                   !- Central Heating Design Supply Air Temperature {C}
  NonCoincident,                          !- Sizing Option
  Yes,                                    !- 100% Outdoor Air in Cooling
  Yes,                                    !- 100% Outdoor Air in Heating
  0.0085,                                 !- Central Cooling Design Supply Air Humidity Ratio {kg-H2O/kg-Air}
  0.008,                                  !- Central Heating Design Supply Air Humidity Ratio {kg-H2O/kg-Air}
  DesignDay,                              !- Cooling Design Air Flow Method
  0,                                      !- Cooling Design Air Flow Rate {m3/s}
  DesignDay,                              !- Heating Design Air Flow Method
  0,                                      !- Heating Design Air Flow Rate {m3/s}
  ZoneSum,                                !- System Outdoor Air Method
  1,                                      !- Zone Maximum Outdoor Air Fraction {dimensionless}
  0.0099676501,                           !- Cooling Supply Air Flow Rate Per Floor Area {m3/s-m2}
  1,                                      !- Cooling Fraction of Autosized Cooling Supply Air Flow Rate
  3.9475456e-005,                         !- Cooling Supply Air Flow Rate Per Unit Cooling Capacity {m3/s-W}
  0.0099676501,                           !- Heating Supply Air Flow Rate Per Floor Area {m3/s-m2}
  1,                                      !- Heating Fraction of Autosized Heating Supply Air Flow Rate
  1,                                      !- Heating Fraction of Autosized Cooling Supply Air Flow Rate
  3.1588213e-005,                         !- Heating Supply Air Flow Rate Per Unit Heating Capacity {m3/s-W}
  CoolingDesignCapacity,                  !- Cooling Design Capacity Method
  autosize,                               !- Cooling Design Capacity {W}
  234.7,                                  !- Cooling Design Capacity Per Floor Area {W/m2}
  1,                                      !- Fraction of Autosized Cooling Design Capacity
  HeatingDesignCapacity,                  !- Heating Design Capacity Method
  autosize,                               !- Heating Design Capacity {W}
  157,                                    !- Heating Design Capacity Per Floor Area {W/m2}
  1,                                      !- Fraction of Autosized Heating Design Capacity
  OnOff;                                  !- Central Cooling Capacity Control Method

OS:AvailabilityManagerAssignmentList,
  {dca6e65e-6436-4d68-a7f4-cf1d1d1e8dca}, !- Handle
  Air Loop HVAC 1 AvailabilityManagerAssignmentList; !- Name

OS:Fan:VariableVolume,
  {4a33ce7f-3ce9-428f-b21b-cc3dc0fff091}, !- Handle
  Fan Variable Volume 1,                  !- Name
  {92a6064e-907a-4a36-980b-f18e69962086}, !- Availability Schedule Name
  0.6045,                                 !- Fan Efficiency
  500,                                    !- Pressure Rise {Pa}
  Autosize,                               !- Maximum Flow Rate {m3/s}
  FixedFlowRate,                          !- Fan Power Minimum Flow Rate Input Method
  0,                                      !- Fan Power Minimum Flow Fraction
  0,                                      !- Fan Power Minimum Air Flow Rate {m3/s}
  0.93,                                   !- Motor Efficiency
  1,                                      !- Motor In Airstream Fraction
  0.040759894,                            !- Fan Power Coefficient 1
  0.08804497,                             !- Fan Power Coefficient 2
  -0.07292612,                            !- Fan Power Coefficient 3
  0.943739823,                            !- Fan Power Coefficient 4
  0,                                      !- Fan Power Coefficient 5
  {f77705c2-1a0d-44ed-b9dd-b6bbf3c327d6}, !- Air Inlet Node Name
  {80bcc0e7-073c-4c20-8f82-62b81e183fb8}, !- Air Outlet Node Name
  ;                                       !- End-Use Subcategory

OS:Coil:Heating:Water,
  {150105d1-8c66-4637-9296-dca8e0b941a7}, !- Handle
  Coil Heating Water 1,                   !- Name
  {92a6064e-907a-4a36-980b-f18e69962086}, !- Availability Schedule Name
  ,                                       !- U-Factor Times Area Value {W/K}
  ,                                       !- Maximum Water Flow Rate {m3/s}
  {68d309c8-e353-483a-bd55-cb3cf7fb0ea2}, !- Water Inlet Node Name
  {992670d8-516c-4bf5-a0a2-fb3cbb6d7522}, !- Water Outlet Node Name
  {f7b26774-a126-42c1-a21c-4b2ca2aaceb5}, !- Air Inlet Node Name
  {3664e37a-742e-430c-8669-bcfe8131750f}, !- Air Outlet Node Name
  ,                                       !- Performance Input Method
  ,                                       !- Rated Capacity {W}
  ,                                       !- Rated Inlet Water Temperature {C}
  ,                                       !- Rated Inlet Air Temperature {C}
  ,                                       !- Rated Outlet Water Temperature {C}
  ,                                       !- Rated Outlet Air Temperature {C}
  ;                                       !- Rated Ratio for Air and Water Convection

OS:Coil:Cooling:DX:TwoSpeed,
  {9ecb72ac-0e07-4793-8520-f79737095e66}, !- Handle
  Coil Cooling DX Two Speed 1,            !- Name
  {92a6064e-907a-4a36-980b-f18e69962086}, !- Availability Schedule Name
  Autosize,                               !- Rated High Speed Total Cooling Capacity {W}
  Autosize,                               !- Rated High Speed Sensible Heat Ratio
  3,                                      !- Rated High Speed COP {W/W}
  Autosize,                               !- Rated High Speed Air Flow Rate {m3/s}
  {fe50fd69-9545-4199-8063-c82760e147c4}, !- Air Inlet Node Name
  {bec373f0-3272-40a9-925a-3703237cb2be}, !- Air Outlet Node Name
  {b52c521a-2595-4e31-8365-8d260a22b777}, !- Total Cooling Capacity Function of Temperature Curve Name
  {128e35d1-e485-4bf6-a17d-1cfa9d9394b3}, !- Total Cooling Capacity Function of Flow Fraction Curve Name
  {93312c90-70ad-4f6e-a6ca-3d2d3007e3d2}, !- Energy Input Ratio Function of Temperature Curve Name
  {0e0376c6-a056-4712-85a2-079668157200}, !- Energy Input Ratio Function of Flow Fraction Curve Name
  {b719b6d8-7ed9-49a7-aeec-65bffb45ceaa}, !- Part Load Fraction Correlation Curve Name
  Autosize,                               !- Rated Low Speed Total Cooling Capacity {W}
  0.69,                                   !- Rated Low Speed Sensible Heat Ratio
  3,                                      !- Rated Low Speed COP {W/W}
  ,                                       !- Rated Low Speed Air Flow Rate {m3/s}
  {9ce58ad0-48bc-47ef-8e48-5f1937e4fc11}, !- Low Speed Total Cooling Capacity Function of Temperature Curve Name
  {f1ea80b7-878f-475c-862d-18b6b22f3e9c}, !- Low Speed Energy Input Ratio Function of Temperature Curve Name
  ,                                       !- Condenser Air Inlet Node Name
  AirCooled,                              !- Condenser Type
  0,                                      !- High Speed Evaporative Condenser Effectiveness {dimensionless}
  Autosize,                               !- High Speed Evaporative Condenser Air Flow Rate {m3/s}
  Autosize,                               !- High Speed Evaporative Condenser Pump Rated Power Consumption {W}
  0,                                      !- Low Speed Evaporative Condenser Effectiveness {dimensionless}
  Autosize,                               !- Low Speed Evaporative Condenser Air Flow Rate {m3/s}
  Autosize,                               !- Low Speed Evaporative Condenser Pump Rated Power Consumption {W}
  ,                                       !- Supply Water Storage Tank Name
  ,                                       !- Condensate Collection Water Storage Tank Name
  10,                                     !- Basin Heater Capacity {W/K}
  2,                                      !- Basin Heater Setpoint Temperature {C}
  ;                                       !- Basin Heater Operating Schedule Name

OS:Curve:Biquadratic,
  {b52c521a-2595-4e31-8365-8d260a22b777}, !- Handle
  Curve Biquadratic 1,                    !- Name
  0.42415,                                !- Coefficient1 Constant
  0.04426,                                !- Coefficient2 x
  -0.00042,                               !- Coefficient3 x**2
  0.00333,                                !- Coefficient4 y
  -8e-005,                                !- Coefficient5 y**2
  -0.00021,                               !- Coefficient6 x*y
  17,                                     !- Minimum Value of x
  22,                                     !- Maximum Value of x
  13,                                     !- Minimum Value of y
  46;                                     !- Maximum Value of y

OS:Curve:Quadratic,
  {128e35d1-e485-4bf6-a17d-1cfa9d9394b3}, !- Handle
  Curve Quadratic 1,                      !- Name
  0.77136,                                !- Coefficient1 Constant
  0.34053,                                !- Coefficient2 x
  -0.11088,                               !- Coefficient3 x**2
  0.75918,                                !- Minimum Value of x
  1.13877;                                !- Maximum Value of x

OS:Curve:Biquadratic,
  {93312c90-70ad-4f6e-a6ca-3d2d3007e3d2}, !- Handle
  Curve Biquadratic 2,                    !- Name
  1.23649,                                !- Coefficient1 Constant
  -0.02431,                               !- Coefficient2 x
  0.00057,                                !- Coefficient3 x**2
  -0.01434,                               !- Coefficient4 y
  0.00063,                                !- Coefficient5 y**2
  -0.00038,                               !- Coefficient6 x*y
  17,                                     !- Minimum Value of x
  22,                                     !- Maximum Value of x
  13,                                     !- Minimum Value of y
  46;                                     !- Maximum Value of y

OS:Curve:Quadratic,
  {0e0376c6-a056-4712-85a2-079668157200}, !- Handle
  Curve Quadratic 2,                      !- Name
  1.2055,                                 !- Coefficient1 Constant
  -0.32953,                               !- Coefficient2 x
  0.12308,                                !- Coefficient3 x**2
  0.75918,                                !- Minimum Value of x
  1.13877;                                !- Maximum Value of x

OS:Curve:Quadratic,
  {b719b6d8-7ed9-49a7-aeec-65bffb45ceaa}, !- Handle
  Curve Quadratic 3,                      !- Name
  0.771,                                  !- Coefficient1 Constant
  0.229,                                  !- Coefficient2 x
  0,                                      !- Coefficient3 x**2
  0,                                      !- Minimum Value of x
  1;                                      !- Maximum Value of x

OS:Curve:Biquadratic,
  {9ce58ad0-48bc-47ef-8e48-5f1937e4fc11}, !- Handle
  Curve Biquadratic 3,                    !- Name
  0.42415,                                !- Coefficient1 Constant
  0.04426,                                !- Coefficient2 x
  -0.00042,                               !- Coefficient3 x**2
  0.00333,                                !- Coefficient4 y
  -8e-005,                                !- Coefficient5 y**2
  -0.00021,                               !- Coefficient6 x*y
  17,                                     !- Minimum Value of x
  22,                                     !- Maximum Value of x
  13,                                     !- Minimum Value of y
  46;                                     !- Maximum Value of y

OS:Curve:Biquadratic,
  {f1ea80b7-878f-475c-862d-18b6b22f3e9c}, !- Handle
  Curve Biquadratic 4,                    !- Name
  1.23649,                                !- Coefficient1 Constant
  -0.02431,                               !- Coefficient2 x
  0.00057,                                !- Coefficient3 x**2
  -0.01434,                               !- Coefficient4 y
  0.00063,                                !- Coefficient5 y**2
  -0.00038,                               !- Coefficient6 x*y
  17,                                     !- Minimum Value of x
  22,                                     !- Maximum Value of x
  13,                                     !- Minimum Value of y
  46;                                     !- Maximum Value of y

OS:SetpointManager:Scheduled,
  {d2cdaa37-b78c-4e78-bddd-a6a184fb0fc1}, !- Handle
  Setpoint Manager Scheduled 1,           !- Name
  Temperature,                            !- Control Variable
  {381d0d9c-ab73-403d-b8f8-e2847324557f}, !- Schedule Name
  {a43e2b79-8062-4ebd-b096-5e3560f772e0}; !- Setpoint Node or NodeList Name

OS:ScheduleTypeLimits,
  {14ceed1e-ff8e-48e9-acf0-16451fe1385a}, !- Handle
  Temperature,                            !- Name
  ,                                       !- Lower Limit Value
  ,                                       !- Upper Limit Value
  Continuous,                             !- Numeric Type
  Temperature;                            !- Unit Type

OS:Controller:OutdoorAir,
  {d604a406-0e0a-4dea-b11d-b2c27f130fcf}, !- Handle
  Controller Outdoor Air 1,               !- Name
  ,                                       !- Relief Air Outlet Node Name
  ,                                       !- Return Air Node Name
  ,                                       !- Mixed Air Node Name
  ,                                       !- Actuator Node Name
  0,                                      !- Minimum Outdoor Air Flow Rate {m3/s}
  Autosize,                               !- Maximum Outdoor Air Flow Rate {m3/s}