
OS:Version,
  {c14a0719-d9e9-4996-8505-f5f72a3b3c18}, !- Handle
  2.4.0;                                  !- Version Identifier

! TrackingID:#[KWwmmd]
OS:AirLoopHVAC,
  {1f45e7d4-5c6b-4e5c-bb23-3d87708d0703}, !- Handle
  Air Loop HVAC 1,                        !- Name
  ,                                       !- Controller List Name
  {9531ae6f-55e4-4a24-9a3b-954fd32f2ffc}, !- Availability Schedule
  {f0c8c021-69d7-43ba-aa64-1a097d1fc9a0}, !- Availability Manager List Name
  AutoSize,                               !- Design Supply Air Flow Rate {m3/s}
  ,                                       !- Branch List Name
  ,                                       !- Connector List Name
  {a67e1b4c-2f50-4fae-a9d7-4833e1addaf2}, !- Supply Side Inlet Node Name
  {742c5862-6b39-4d22-b73a-0d4c22fa5f84}, !- Demand Side Outlet Node Name
  {c44e3025-827a-4139-9882-9c6caa755790}, !- Demand Side Inlet Node A
  {8fd3cf1e-aab2-4877-a4c2-7aa3fea5e8e2}, !- Supply Side Outlet Node A
  ,                                       !- Demand Side Inlet Node B
  ,                                       !- Supply Side Outlet Node B
  ,                                       !- Return Air Bypass Flow Temperature Setpoint Schedule Name
  {f796979b-a8f9-43fb-86a8-c4d12147494c}, !- Demand Mixer Name
  {eb79ae65-2be0-4327-8621-88bb505f8602}, !- Demand Splitter A Name
  ,                                       !- Demand Splitter B Name
  ;                                       !- Supply Splitter Name

OS:Node,
  {130d1806-138e-4904-9271-e080088b6882}, !- Handle
  Node 1,                                 !- Name
  {a67e1b4c-2f50-4fae-a9d7-4833e1addaf2}, !- Inlet Port
  {f821f462-78e1-427d-9cd7-40d55fd8df95}; !- Outlet Port

OS:Node,
  {3f12f1d8-e26f-4e66-b665-44aaf3994ce6}, !- Handle
  Node 2,                                 !- Name
  {3bcbebe3-3657-4d7c-b8c5-768571e9c028}, !- Inlet Port
  {8fd3cf1e-aab2-4877-a4c2-7aa3fea5e8e2}; !- Outlet Port

OS:Connection,
  {a67e1b4c-2f50-4fae-a9d7-4833e1addaf2}, !- Handle
  {20388f09-da0b-454b-8b72-9bac0d2e5d5a}, !- Name
  {1f45e7d4-5c6b-4e5c-bb23-3d87708d0703}, !- Source Object
  8,                                      !- Outlet Port
  {130d1806-138e-4904-9271-e080088b6882}, !- Target Object
  2;                                      !- Inlet Port

OS:Connection,
  {8fd3cf1e-aab2-4877-a4c2-7aa3fea5e8e2}, !- Handle
  {9990e9cc-2373-4d72-ac49-062c57ffc128}, !- Name
  {3f12f1d8-e26f-4e66-b665-44aaf3994ce6}, !- Source Object
  3,                                      !- Outlet Port
  {1f45e7d4-5c6b-4e5c-bb23-3d87708d0703}, !- Target Object
  11;                                     !- Inlet Port

OS:Node,
  {73803934-1eff-4604-bdad-6e98cb2a886d}, !- Handle
  Node 3,                                 !- Name
  {c44e3025-827a-4139-9882-9c6caa755790}, !- Inlet Port
  {3af7a80d-1f77-40b9-a3b4-c2a43f859a22}; !- Outlet Port

OS:Node,
  {7971ac9e-9566-402f-8b4c-07a5868a5717}, !- Handle
  Node 4,                                 !- Name
  {7d3516f7-a7bc-4bef-b1b3-ded89bab0afe}, !- Inlet Port
  {742c5862-6b39-4d22-b73a-0d4c22fa5f84}; !- Outlet Port

OS:Node,
  {a5e85a84-64c5-4210-b021-c6406e7b1b36}, !- Handle
  Node 5,                                 !- Name
  {89275af8-2b8a-4a79-abef-02fb40fe8c2e}, !- Inlet Port
  {1f41a949-c600-4fa5-9665-e849d900b962}; !- Outlet Port

OS:Connection,
  {c44e3025-827a-4139-9882-9c6caa755790}, !- Handle
  {63096afd-3068-47c6-866a-6949ddf959af}, !- Name
  {1f45e7d4-5c6b-4e5c-bb23-3d87708d0703}, !- Source Object
  10,                                     !- Outlet Port
  {73803934-1eff-4604-bdad-6e98cb2a886d}, !- Target Object
  2;                                      !- Inlet Port

OS:Connection,
  {742c5862-6b39-4d22-b73a-0d4c22fa5f84}, !- Handle
  {6ee4e27b-aa65-4e23-ba3c-530bc354e775}, !- Name
  {7971ac9e-9566-402f-8b4c-07a5868a5717}, !- Source Object
  3,                                      !- Outlet Port
  {1f45e7d4-5c6b-4e5c-bb23-3d87708d0703}, !- Target Object
  9;                                      !- Inlet Port

OS:AirLoopHVAC:ZoneSplitter,
  {eb79ae65-2be0-4327-8621-88bb505f8602}, !- Handle
  Air Loop HVAC Zone Splitter 1,          !- Name
  {3af7a80d-1f77-40b9-a3b4-c2a43f859a22}, !- Inlet Node Name
  {f44d9423-c8d4-40ed-a5ab-c9e52c8afe1e}, !- Outlet Node Name 1
  {863452ae-3e39-4574-9d71-bd603973d3e7}; !- Outlet Node Name 2

OS:AirLoopHVAC:ZoneMixer,
  {f796979b-a8f9-43fb-86a8-c4d12147494c}, !- Handle
  Air Loop HVAC Zone Mixer 1,             !- Name
  {7d3516f7-a7bc-4bef-b1b3-ded89bab0afe}, !- Outlet Node Name
  {2c307814-8a56-4a4f-a629-f4d0bdad30e0}, !- Inlet Node Name 1
  {4205a2e2-73b2-4c33-bb46-e4757672ca6c}; !- Inlet Node Name 2

OS:Connection,
  {3af7a80d-1f77-40b9-a3b4-c2a43f859a22}, !- Handle
  {62b44b8f-564d-4252-9165-e83a9d0e3ca6}, !- Name
  {73803934-1eff-4604-bdad-6e98cb2a886d}, !- Source Object
  3,                                      !- Outlet Port
  {eb79ae65-2be0-4327-8621-88bb505f8602}, !- Target Object
  2;                                      !- Inlet Port

OS:Connection,
  {7d3516f7-a7bc-4bef-b1b3-ded89bab0afe}, !- Handle
  {2c2efd84-d69f-4d37-9a61-deb043c3d2f7}, !- Name
  {f796979b-a8f9-43fb-86a8-c4d12147494c}, !- Source Object
  2,                                      !- Outlet Port
  {7971ac9e-9566-402f-8b4c-07a5868a5717}, !- Target Object
  2;                                      !- Inlet Port

OS:Sizing:System,
  {645fdf42-f5cd-430a-bd1d-827c49d4d501}, !- Handle
  {1f45e7d4-5c6b-4e5c-bb23-3d87708d0703}, !- AirLoop Name
  Sensible,                               !- Type of Load to Size On
  Autosize,                               !- Design Outdoor Air Flow Rate {m3/s}
  0.3,                                    !- Minimum System Air Flow Ratio
  7,                                      !- Preheat Design Temperature {C}
  0.008,                                  !- Preheat Design Humidity Ratio {kg-H2O/kg-Air}
  12.8,                                   !- Precool Design Temperature {C}
  0.008,                                  !- Precool Design Humidity Ratio {kg-H2O/kg-Air}
  12.8,                                   !- Central Cooling Design Supply Air Temperature {C}
  16.7,                                   !- Central Heating Design Supply Air Temperature {C}
  NonCoincident,                          !- Sizing Option
  Yes,                                    !- 100% Outdoor Air in Cooling
  Yes,                                    !- 100% Outdoor Air in Heating
  0.0085,                                 !- Central Cooling Design Supply Air Humidity Ratio {kg-H2O/kg-Air}
  0.008,                                  !- Central Heating Design Supply Air Humidity Ratio {kg-H2O/kg-Air}
  DesignDay,                              !- Cooling Design Air Flow Method
  0,                                      !- Cooling Design Air Flow Rate {m3/s}
  DesignDay,                              !- Heating Design Air Flow Method
  0,                                      !- Heating Design Air Flow Rate {m3/s}
  ZoneSum,                                !- System Outdoor Air Method
  1,                                      !- Zone Maximum Outdoor Air Fraction {dimensionless}
  0.0099676501,                           !- Cooling Supply Air Flow Rate Per Floor Area {m3/s-m2}
  1,                                      !- Cooling Fraction of Autosized Cooling Supply Air Flow Rate
  3.9475456e-005,                         !- Cooling Supply Air Flow Rate Per Unit Cooling Capacity {m3/s-W}
  0.0099676501,                           !- Heating Supply Air Flow Rate Per Floor Area {m3/s-m2}
  1,                                      !- Heating Fraction of Autosized Heating Supply Air Flow Rate
  1,                                      !- Heating Fraction of Autosized Cooling Supply Air Flow Rate
  3.1588213e-005,                         !- Heating Supply Air Flow Rate Per Unit Heating Capacity {m3/s-W}
  CoolingDesignCapacity,                  !- Cooling Design Capacity Method
  autosize,                               !- Cooling Design Capacity {W}
  234.7,                                  !- Cooling Design Capacity Per Floor Area {W/m2}
  1,                                      !- Fraction of Autosized Cooling Design Capacity
  HeatingDesignCapacity,                  !- Heating Design Capacity Method
  autosize,                               !- Heating Design Capacity {W}
  157,                                    !- Heating Design Capacity Per Floor Area {W/m2}
  1,                                      !- Fraction of Autosized Heating Design Capacity
  OnOff;                                  !- Central Cooling Capacity Control Method

OS:Schedule:Constant,
  {9531ae6f-55e4-4a24-9a3b-954fd32f2ffc}, !- Handle
  Always On Discrete,                     !- Name
  {d277c5a5-3ace-499e-a3e3-84a17859185a}, !- Schedule Type Limits Name
  1;                                      !- Value

OS:ScheduleTypeLimits,
  {d277c5a5-3ace-499e-a3e3-84a17859185a}, !- Handle
  OnOff,                                  !- Name
  0,                                      !- Lower Limit Value
  1,                                      !- Upper Limit Value
  Discrete,                               !- Numeric Type
  Availability;                           !- Unit Type

OS:AvailabilityManagerAssignmentList,
  {f0c8c021-69d7-43ba-aa64-1a097d1fc9a0}, !- Handle
  Air Loop HVAC 1 AvailabilityManagerAssignmentList; !- Name

! TrackingID:#[wGBrAv]
OS:Controller:OutdoorAir,
  {66a51ec9-61e8-4d70-9cd0-0deacc5ca3a9}, !- Handle
  Controller Outdoor Air 1,               !- Name
  ,                                       !- Relief Air Outlet Node Name
  ,                                       !- Return Air Node Name
  ,                                       !- Mixed Air Node Name
  ,                                       !- Actuator Node Name
  0,                                      !- Minimum Outdoor Air Flow Rate {m3/s}
  Autosize,                               !- Maximum Outdoor Air Flow Rate {m3/s}
  NoEconomizer,                           !- Economizer Control Type
  ModulateFlow,                           !- Economizer Control Action Type
  28,                                     !- Economizer Maximum Limit Dry-Bulb Temperature {C}
  64000,                                  !- Economizer Maximum Limit Enthalpy {J/kg}
  ,                                       !- Economizer Maximum Limit Dewpoint Temperature {C}
  ,                                       !- Electronic Enthalpy Limit Curve Name
  -100,                                   !- Economizer Minimum Limit Dry-Bulb Temperature {C}
  NoLockout,                              !- Lockout Type
  FixedMinimum,                           !- Minimum Limit Type
  ,                                       !- Minimum Outdoor Air Schedule Name
  ,                                       !- Minimum Fraction of Outdoor Air Schedule Name
  ,                                       !- Maximum Fraction of Outdoor Air Schedule Name
  {b9152ad8-d8bd-412e-ad2e-0a70c3200f78}, !- Controller Mechanical Ventilation
  ,                                       !- Time of Day Economizer Control Schedule Name
  No,                                     !- High Humidity Control
  ,                                       !- Humidistat Control Zone Name
  ,                                       !- High Humidity Outdoor Air Flow Ratio
  ,                                       !- Control High Indoor Humidity Based on Outdoor Humidity Ratio
  BypassWhenWithinEconomizerLimits;       !- Heat Recovery Bypass Control Type

OS:Controller:MechanicalVentilation,
  {b9152ad8-d8bd-412e-ad2e-0a70c3200f78}, !- Handle
  Controller Mechanical Ventilation 1,    !- Name
  {9531ae6f-55e4-4a24-9a3b-954fd32f2ffc}, !- Availability Schedule
  ,                                       !- Demand Controlled Ventilation
  ZoneSum;                                !- System Outdoor Air Method

! TrackingID:#[V853Xt]
OS:AirLoopHVAC:OutdoorAirSystem,
  {eab357fc-0373-4e74-a624-c085dcf9f419}, !- Handle
  Air Loop HVAC Outdoor Air System 1,     !- Name
  {66a51ec9-61e8-4d70-9cd0-0deacc5ca3a9}, !- Controller Name
  ,                                       !- Outdoor Air Equipment List Name
  ,                                       !- Availability Manager List Name
  {a4c8e89c-e943-415a-82ff-c495b79e857e}, !- Mixed Air Node Name
  {319316e4-b4ff-409b-b9f4-3e469a2abd88}, !- Outdoor Air Stream Node Name
  {df72f2de-8719-4b8e-a9db-585cb1eb23cd}, !- Relief Air Stream Node Name
  {f821f462-78e1-427d-9cd7-40d55fd8df95}; !- Return Air Stream Node Name

OS:Node,
  {e8bac8e3-5aa8-4e68-9b64-7c59bea2296e}, !- Handle
  Node 6,                                 !- Name
  ,                                       !- Inlet Port
  {319316e4-b4ff-409b-b9f4-3e469a2abd88}; !- Outlet Port

OS:Connection,
  {319316e4-b4ff-409b-b9f4-3e469a2abd88}, !- Handle
  {d9a8358f-3bf0-4f36-bd2d-6dad0fec061f}, !- Name
  {e8bac8e3-5aa8-4e68-9b64-7c59bea2296e}, !- Source Object
  3,                                      !- Outlet Port
  {eab357fc-0373-4e74-a624-c085dcf9f419}, !- Target Object
  6;                                      !- Inlet Port

OS:Node,
  {41d1a75b-a156-4565-83aa-9cbc019be96c}, !- Handle
  Node 7,                                 !- Name
  {df72f2de-8719-4b8e-a9db-585cb1eb23cd}, !- Inlet Port
  ;                                       !- Outlet Port

OS:Connection,
  {df72f2de-8719-4b8e-a9db-585cb1eb23cd}, !- Handle
  {768a0c4e-4cc7-4093-b7a1-dd6f7893bcaa}, !- Name
  {eab357fc-0373-4e74-a624-c085dcf9f419}, !- Source Object
  7,                                      !- Outlet Port
  {41d1a75b-a156-4565-83aa-9cbc019be96c}, !- Target Object
  2;                                      !- Inlet Port

OS:Connection,
  {f821f462-78e1-427d-9cd7-40d55fd8df95}, !- Handle
  {645f4533-fef3-4049-a61a-58c8b8aba331}, !- Name
  {130d1806-138e-4904-9271-e080088b6882}, !- Source Object
  3,                                      !- Outlet Port
  {eab357fc-0373-4e74-a624-c085dcf9f419}, !- Target Object
  8;                                      !- Inlet Port

! TrackingID:#[3GkL1Y]
OS:Coil:Cooling:Water,
  {4c1e33dd-1527-4df1-86b0-51914c8f39af}, !- Handle
  Coil Cooling Water 1,                   !- Name
  {9531ae6f-55e4-4a24-9a3b-954fd32f2ffc}, !- Availability Schedule Name
  ,                                       !- Design Water Flow Rate {m3/s}
  ,                                       !- Design Air Flow Rate {m3/s}
  ,                                       !- Design Inlet Water Temperature {C}
  ,                                       !- Design Inlet Air Temperature {C}
  ,                                       !- Design Outlet Air Temperature {C}
  ,                                       !- Design Inlet Air Humidity Ratio {kg-H2O/kg-air}
  ,                                       !- Design Outlet Air Humidity Ratio {kg-H2O/kg-air}
  {c1982e1f-d684-4b06-ad01-ed5cb0b5518c}, !- Water Inlet Node Name
  {0491202a-7852-490c-ba64-1eebee18abca}, !- Water Outlet Node Name
  {6c490aac-bd79-4224-b779-2a290565d875}, !- Air Inlet Node Name
  {1686916c-e8df-4b1b-a79b-75b1dd604466}, !- Air Outlet Node Name
  ,                                       !- Type of Analysis
  ;                                       !- Heat Exchanger Configuration

OS:Node,
  {10fad9e4-93ff-42b3-b9f3-dbc1ab44f801}, !- Handle
  Node 8,                                 !- Name
  {a4c8e89c-e943-415a-82ff-c495b79e857e}, !- Inlet Port
  {6c490aac-bd79-4224-b779-2a290565d875}; !- Outlet Port

OS:Connection,
  {a4c8e89c-e943-415a-82ff-c495b79e857e}, !- Handle
  {94659670-0829-4886-bfaf-e338e162d206}, !- Name
  {eab357fc-0373-4e74-a624-c085dcf9f419}, !- Source Object
  5,                                      !- Outlet Port
  {10fad9e4-93ff-42b3-b9f3-dbc1ab44f801}, !- Target Object
  2;                                      !- Inlet Port

OS:Connection,
  {6c490aac-bd79-4224-b779-2a290565d875}, !- Handle
  {7bfa787b-9e75-416d-ad6a-a6e491e1dbde}, !- Name
  {10fad9e4-93ff-42b3-b9f3-dbc1ab44f801}, !- Source Object
  3,                                      !- Outlet Port
  {4c1e33dd-1527-4df1-86b0-51914c8f39af}, !- Target Object
  12;                                     !- Inlet Port

! TrackingID:#[coIkE3]
OS:Coil:Heating:Water,
  {0840b08b-53a1-4b6d-a548-0bb5b640e1d5}, !- Handle
  Coil Heating Water 1,                   !- Name
  {9531ae6f-55e4-4a24-9a3b-954fd32f2ffc}, !- Availability Schedule Name
  ,                                       !- U-Factor Times Area Value {W/K}
  ,                                       !- Maximum Water Flow Rate {m3/s}
  {157939a6-0b81-4807-bd36-d86549508f47}, !- Water Inlet Node Name
  {7b7c6c7a-c2fa-4ef5-b338-399e310e96ed}, !- Water Outlet Node Name
  {f7ac6cdc-0634-4bf4-a760-9d80b33c576d}, !- Air Inlet Node Name
  {2dfe4faa-f650-400f-8e9c-315130859313}, !- Air Outlet Node Name
  ,                                       !- Performance Input Method
  ,                                       !- Rated Capacity {W}
  ,                                       !- Rated Inlet Water Temperature {C}
  ,                                       !- Rated Inlet Air Temperature {C}
  ,                                       !- Rated Outlet Water Temperature {C}
  ,                                       !- Rated Outlet Air Temperature {C}
  ;                                       !- Rated Ratio for Air and Water Convection

OS:Node,
  {81d04787-6367-4b2e-a4e9-ec5781445811}, !- Handle
  Node 9,                                 !- Name
  {1686916c-e8df-4b1b-a79b-75b1dd604466}, !- Inlet Port
  {f7ac6cdc-0634-4bf4-a760-9d80b33c576d}; !- Outlet Port

OS:Connection,
  {1686916c-e8df-4b1b-a79b-75b1dd604466}, !- Handle
  {806983a4-6d21-4764-8b94-3d1f5aa8936a}, !- Name
  {4c1e33dd-1527-4df1-86b0-51914c8f39af}, !- Source Object
  13,                                     !- Outlet Port
  {81d04787-6367-4b2e-a4e9-ec5781445811}, !- Target Object
  2;                                      !- Inlet Port

OS:Connection,
  {f7ac6cdc-0634-4bf4-a760-9d80b33c576d}, !- Handle
  {cb080357-a2b2-44de-b45b-ce87247d9ab4}, !- Name
  {81d04787-6367-4b2e-a4e9-ec5781445811}, !- Source Object
  3,                                      !- Outlet Port
  {0840b08b-53a1-4b6d-a548-0bb5b640e1d5}, !- Target Object
  7;                                      !- Inlet Port

! TrackingID:#[47u2Os]
OS:Fan:VariableVolume,
  {f60e0bfa-762b-4b60-b727-354ee3f480c4}, !- Handle
  Fan Variable Volume 1,                  !- Name
  {9531ae6f-55e4-4a24-9a3b-954fd32f2ffc}, !- Availability Schedule Name
  0.6045,                                 !- Fan Efficiency
  1017.592,                               !- Pressure Rise {Pa}
  Autosize,                               !- Maximum Flow Rate {m3/s}
  FixedFlowRate,                          !- Fan Power Minimum Flow Rate Input Method
  0,                                      !- Fan Power Minimum Flow Fraction
  0,                                      !- Fan Power Minimum Air Flow Rate {m3/s}
  0.93,                                   !- Motor Efficiency
  1,                                      !- Motor In Airstream Fraction
  0.040759894,                            !- Fan Power Coefficient 1
  0.08804497,                             !- Fan Power Coefficient 2
  -0.07292612,                            !- Fan Power Coefficient 3
  0.943739823,                            !- Fan Power Coefficient 4
  0,                                      !- Fan Power Coefficient 5
  {ac71c5f9-8312-4466-95ce-2f7e25a904e2}, !- Air Inlet Node Name
  {3bcbebe3-3657-4d7c-b8c5-768571e9c028}, !- Air Outlet Node Name
  ;                                       !- End-Use Subcategory

OS:Node,
  {730033d2-7e13-466c-8af1-09db0967d038}, !- Handle
  Node 10,                                !- Name
  {2dfe4faa-f650-400f-8e9c-315130859313}, !- Inlet Port
  {ac71c5f9-8312-4466-95ce-2f7e25a904e2}; !- Outlet Port

OS:Connection,
  {2dfe4faa-f650-400f-8e9c-315130859313}, !- Handle
  {7c560d0d-7a18-41a8-906f-eb8e73c6415c}, !- Name
  {0840b08b-53a1-4b6d-a548-0bb5b640e1d5}, !- Source Object
  8,                                      !- Outlet Port
  {730033d2-7e13-466c-8af1-09db0967d038}, !- Target Object
  2;                                      !- Inlet Port

OS:Connection,
  {ac71c5f9-8312-4466-95ce-2f7e25a904e2}, !- Handle
  {f22a9925-2188-4acc-9ba7-f8c28bc84e58}, !- Name
  {730033d2-7e13-466c-8af1-09db0967d038}, !- Source Object
  3,                                      !- Outlet Port
  {f60e0bfa-762b-4b60-b727-354ee3f480c4}, !- Target Object
  16;                                     !- Inlet Port

OS:Connection,
  {3bcbebe3-3657-4d7c-b8c5-768571e9c028}, !- Handle
  {25758fc4-65c4-46fb-b93a-8968d4320140}, !- Name
  {f60e0bfa-762b-4b60-b727-354ee3f480c4}, !- Source Object
  17,                                     !- Outlet Port
  {3f12f1d8-e26f-4e66-b665-44aaf3994ce6}, !- Target Object
  2;                                      !- Inlet Port

OS:Schedule:Compact,
  {164a24c6-1f88-4f95-b3c2-f1b3a5fd0cb3}, !- Handle
  Schedule Compact 1,                     !- Name
  {9a7f0102-4e45-4a70-a7ce-2daa6e83e9f9}, !- Schedule Type Limits Name
  Through: 12/31,                         !- Field 1
  For: AllDays,                           !- Field 2
  Until: 24:00,                           !- Field 3
  12.778;                                 !- Field 4

! TrackingID:#[JXDGSF]
OS:SetpointManager:Scheduled,
  {a61378c5-45ce-429f-a100-0b804624e2ea}, !- Handle
  Setpoint Manager Scheduled 1,           !- Name
  Temperature,                            !- Control Variable
  {164a24c6-1f88-4f95-b3c2-f1b3a5fd0cb3}, !- Schedule Name
  {3f12f1d8-e26f-4e66-b665-44aaf3994ce6}; !- Setpoint Node or NodeList Name

OS:ScheduleTypeLimits,
  {9a7f0102-4e45-4a70-a7ce-2daa6e83e9f9}, !- Handle
  Temperature,                            !- Name
  ,                                       !- Lower Limit Value
  ,                                       !- Upper Limit Value
  Continuous,                             !- Numeric Type
  Temperature;                            !- Unit Type

! TrackingID:#[UMbwyF]
OS:ThermalZone,
  {56be16d5-511b-423a-bfc0-8587f2969ad9}, !- Handle
  zone_0,                                 !- Name
  ,                                       !- Multiplier
  ,                                       !- Ceiling Height {m}
  ,                                       !- Volume {m3}
  ,                                       !- Floor Area {m2}
  ,                                       !- Zone Inside Convection Algorithm
  ,                                       !- Zone Outside Convection Algorithm
  ,                                       !- Zone Conditioning Equipment List Name
  {0b486f42-a827-4560-b12b-e846b6674fd3}, !- Zone Air Inlet Port List
  {09efbf3d-300c-41fe-bacd-d61bcd9743bd}, !- Zone Air Exhaust Port List
  {1ba383ef-fc06-48ed-816c-4f45a063144c}, !- Zone Air Node Name
  {c31ece9e-eed6-4bbf-94ca-899a178274ee}, !- Zone Return Air Node Name
  ,                                       !- Primary Daylighting Control Name
  ,                                       !- Fraction of Zone Controlled by Primary Daylighting Control
  ,                                       !- Secondary Daylighting Control Name
  ,                                       !- Fraction of Zone Controlled by Secondary Daylighting Control
  ,                                       !- Illuminance Map Name
  ,                                       !- Group Rendering Name
  ,                                       !- Thermostat Name
  No;                                     !- Use Ideal Air Loads

OS:Node,
  {f833c9c4-0a16-4822-9889-d22a1b862982}, !- Handle
  Node 11,                                !- Name
  {1ba383ef-fc06-48ed-816c-4f45a063144c}, !- Inlet Port
  ;                                       !- Outlet Port

OS:Connection,
  {1ba383ef-fc06-48ed-816c-4f45a063144c}, !- Handle
  {08db6f39-b3cf-45ed-9a08-7d371d98852a}, !- Name
  {56be16d5-511b-423a-bfc0-8587f2969ad9}, !- Source Object
  11,                                     !- Outlet Port
  {f833c9c4-0a16-4822-9889-d22a1b862982}, !- Target Object
  2;                                      !- Inlet Port

OS:PortList,
  {0b486f42-a827-4560-b12b-e846b6674fd3}, !- Handle
  {c6823b08-ba62-454d-83dd-c06deadd68e6}, !- Name
  {56be16d5-511b-423a-bfc0-8587f2969ad9}, !- HVAC Component
  {1f41a949-c600-4fa5-9665-e849d900b962}; !- Port 1

OS:PortList,
  {09efbf3d-300c-41fe-bacd-d61bcd9743bd}, !- Handle
  {415fbca0-7944-4178-b15d-a08e9f30d548}, !- Name
  {56be16d5-511b-423a-bfc0-8587f2969ad9}; !- HVAC Component

OS:Sizing:Zone,
  {14aee273-0010-4373-9711-8e4b80fb0260}, !- Handle
  {56be16d5-511b-423a-bfc0-8587f2969ad9}, !- Zone or ZoneList Name
  SupplyAirTemperature,                   !- Zone Cooling Design Supply Air Temperature Input Method
  14,                                     !- Zone Cooling Design Supply Air Temperature {C}
  11.11,                                  !- Zone Cooling Design Supply Air Temperature Difference {deltaC}
  SupplyAirTemperature,                   !- Zone Heating Design Supply Air Temperature Input Method
  40,                                     !- Zone Heating Design Supply Air Temperature {C}
  11.11,                                  !- Zone Heating Design Supply Air Temperature Difference {deltaC}
  0.0085,                                 !- Zone Cooling Design Supply Air Humidity Ratio {kg-H2O/kg-air}
  0.008,                                  !- Zone Heating Design Supply Air Humidity Ratio {kg-H2O/kg-air}
  ,                                       !- Zone Heating Sizing Factor
  ,                                       !- Zone Cooling Sizing Factor
  DesignDay,                              !- Cooling Design Air Flow Method
  ,                                       !- Cooling Design Air Flow Rate {m3/s}
  ,                                       !- Cooling Minimum Air Flow per Zone Floor Area {m3/s-m2}
  ,                                       !- Cooling Minimum Air Flow {m3/s}
  ,                                       !- Cooling Minimum Air Flow Fraction
  DesignDay,                              !- Heating Design Air Flow Method
  ,                                       !- Heating Design Air Flow Rate {m3/s}
  ,                                       !- Heating Maximum Air Flow per Zone Floor Area {m3/s-m2}
  ,                                       !- Heating Maximum Air Flow {m3/s}
  ,                                       !- Heating Maximum Air Flow Fraction
  ,                                       !- Design Zone Air Distribution Effectiveness in Cooling Mode
  ,                                       !- Design Zone Air Distribution Effectiveness in Heating Mode
  No,                                     !- Account for Dedicated Outdoor Air System
  NeutralSupplyAir,                       !- Dedicated Outdoor Air System Control Strategy
  autosize,                               !- Dedicated Outdoor Air Low Setpoint Temperature for Design {C}
  autosize;                               !- Dedicated Outdoor Air High Setpoint Temperature for Design {C}

OS:ZoneHVAC:EquipmentList,
  {5e9f920f-26c0-47a6-938d-1c7704ad9e90}, !- Handle
  Zone HVAC Equipment List 1,             !- Name
  {56be16d5-511b-423a-bfc0-8587f2969ad9}, !- Thermal Zone
  {424ca44c-80a1-4919-baa1-cfb1839bb6c2}, !- Zone Equipment 1
  1,                                      !- Zone Equipment Cooling Sequence 1
  1;                                      !- Zone Equipment Heating or No-Load Sequence 1

! TrackingID:#[X7qY7K]
OS:Sizing:Zone,
  {e7700117-b41d-417c-a2bd-60b71527fd4a}, !- Handle
  {56be16d5-511b-423a-bfc0-8587f2969ad9}, !- Zone or ZoneList Name
  SupplyAirTemperature,                   !- Zone Cooling Design Supply Air Temperature Input Method
  14,                                     !- Zone Cooling Design Supply Air Temperature {C}
  11.11,                                  !- Zone Cooling Design Supply Air Temperature Difference {deltaC}
  SupplyAirTemperature,                   !- Zone Heating Design Supply Air Temperature Input Method
  40,                                     !- Zone Heating Design Supply Air Temperature {C}
  11.11,                                  !- Zone Heating Design Supply Air Temperature Difference {deltaC}
  0.0085,                                 !- Zone Cooling Design Supply Air Humidity Ratio {kg-H2O/kg-air}
  0.008,                                  !- Zone Heating Design Supply Air Humidity Ratio {kg-H2O/kg-air}
  ,                                       !- Zone Heating Sizing Factor
  ,                                       !- Zone Cooling Sizing Factor
  DesignDay,                              !- Cooling Design Air Flow Method
  ,                                       !- Cooling Design Air Flow Rate {m3/s}
  ,                                       !- Cooling Minimum Air Flow per Zone Floor Area {m3/s-m2}
  ,                                       !- Cooling Minimum Air Flow {m3/s}
  ,                                       !- Cooling Minimum Air Flow Fraction
  DesignDay,                              !- Heating Design Air Flow Method
  ,                                       !- Heating Design Air Flow Rate {m3/s}
  ,                                       !- Heating Maximum Air Flow per Zone Floor Area {m3/s-m2}
  ,                                       !- Heating Maximum Air Flow {m3/s}
  ,                                       !- Heating Maximum Air Flow Fraction
  ,                                       !- Design Zone Air Distribution Effectiveness in Cooling Mode
  ,                                       !- Design Zone Air Distribution Effectiveness in Heating Mode
  No,                                     !- Account for Dedicated Outdoor Air System
  NeutralSupplyAir,                       !- Dedicated Outdoor Air System Control Strategy
  autosize,                               !- Dedicated Outdoor Air Low Setpoint Temperature for Design {C}
  autosize;                               !- Dedicated Outdoor Air High Setpoint Temperature for Design {C}

OS:Coil:Heating:Water,