
OS:Version,
  {cb4af3ce-2054-4846-9384-78c80f0a4e71}, !- Handle
  2.4.0;                                  !- Version Identifier

OS:AirLoopHVAC,
  {d4699c3b-b439-470e-b39c-f802281df113}, !- Handle
  Air Loop HVAC 1,                        !- Name
  ,                                       !- Controller List Name
  {5955c484-77f7-483a-a3f0-589e79635dbb}, !- Availability Schedule
  {b0d8c297-0671-48b9-8ad9-de263fecd6ff}, !- Availability Manager List Name
  AutoSize,                               !- Design Supply Air Flow Rate {m3/s}
  ,                                       !- Branch List Name
  ,                                       !- Connector List Name
  {fa817887-8d6f-4caf-a528-8cd63a248af1}, !- Supply Side Inlet Node Name
  {171c038d-cdde-4e32-b9f0-a2295fa4c844}, !- Demand Side Outlet Node Name
  {a44b7db4-ee09-42d5-947e-20b1b152aef5}, !- Demand Side Inlet Node A
  {2aa84c74-39a4-49d4-bbd9-ae5312537642}, !- Supply Side Outlet Node A
  ,                                       !- Demand Side Inlet Node B
  ,                                       !- Supply Side Outlet Node B
  ,                                       !- Return Air Bypass Flow Temperature Setpoint Schedule Name
  {fcc64dc4-de2e-4955-969d-eca877d4fd5e}, !- Demand Mixer Name
  {1ecc88ac-e76a-433b-9b37-27e5a93f73b2}, !- Demand Splitter A Name
  ,                                       !- Demand Splitter B Name
  ;                                       !- Supply Splitter Name

OS:Node,
  {d33c3268-7cfd-4934-b452-d4dbca174376}, !- Handle
  Node 1,                                 !- Name
  {fa817887-8d6f-4caf-a528-8cd63a248af1}, !- Inlet Port
  {71a21ad8-076e-48be-a886-3d9bf7cc39d3}; !- Outlet Port

OS:Node,
  {367b9eac-e50b-4b05-8171-e0696e931df2}, !- Handle
  Node 2,                                 !- Name
  {00f922bf-b84a-4036-aea3-32510bcc8398}, !- Inlet Port
  {2aa84c74-39a4-49d4-bbd9-ae5312537642}; !- Outlet Port

OS:Connection,
  {fa817887-8d6f-4caf-a528-8cd63a248af1}, !- Handle
  {cb613007-b4ab-4683-b9af-1acbd9df29a0}, !- Name
  {d4699c3b-b439-470e-b39c-f802281df113}, !- Source Object
  8,                                      !- Outlet Port
  {d33c3268-7cfd-4934-b452-d4dbca174376}, !- Target Object
  2;                                      !- Inlet Port

OS:Connection,
  {2aa84c74-39a4-49d4-bbd9-ae5312537642}, !- Handle
  {9a9d8e26-6701-4206-a6d1-74c5f99bf433}, !- Name
  {367b9eac-e50b-4b05-8171-e0696e931df2}, !- Source Object
  3,                                      !- Outlet Port
  {d4699c3b-b439-470e-b39c-f802281df113}, !- Target Object
  11;                                     !- Inlet Port

OS:Node,
  {faccd362-2f0f-4251-b079-eb40af6598d3}, !- Handle
  Node 3,                                 !- Name
  {a44b7db4-ee09-42d5-947e-20b1b152aef5}, !- Inlet Port
  {413ea880-5360-45fc-8498-01c8fd8e14a1}; !- Outlet Port

OS:Node,
  {01cee715-0c15-4362-97d5-2c9d65a9d3d3}, !- Handle
  Node 4,                                 !- Name
  {f93d2f47-568c-4a50-8a13-035c2c54f67c}, !- Inlet Port
  {171c038d-cdde-4e32-b9f0-a2295fa4c844}; !- Outlet Port

OS:Node,
  {2946401e-1320-4706-9cd5-2edc671354d0}, !- Handle
  Node 5,                                 !- Name
  {2b8879a0-0c69-4296-b6b1-056983fe7eb9}, !- Inlet Port
  {390cb5c4-011c-4d77-9c91-2d474039fb58}; !- Outlet Port

OS:Connection,
  {a44b7db4-ee09-42d5-947e-20b1b152aef5}, !- Handle
  {dcb47ad7-3a35-406f-85dd-c270a38d42c4}, !- Name
  {d4699c3b-b439-470e-b39c-f802281df113}, !- Source Object
  10,                                     !- Outlet Port
  {faccd362-2f0f-4251-b079-eb40af6598d3}, !- Target Object
  2;                                      !- Inlet Port

OS:Connection,
  {171c038d-cdde-4e32-b9f0-a2295fa4c844}, !- Handle
  {62a66a04-5dd1-49a5-a779-85ca1c7ba357}, !- Name
  {01cee715-0c15-4362-97d5-2c9d65a9d3d3}, !- Source Object
  3,                                      !- Outlet Port
  {d4699c3b-b439-470e-b39c-f802281df113}, !- Target Object
  9;                                      !- Inlet Port

OS:AirLoopHVAC:ZoneSplitter,
  {1ecc88ac-e76a-433b-9b37-27e5a93f73b2}, !- Handle
  Air Loop HVAC Zone Splitter 1,          !- Name
  {413ea880-5360-45fc-8498-01c8fd8e14a1}, !- Inlet Node Name
  {2b8879a0-0c69-4296-b6b1-056983fe7eb9}; !- Outlet Node Name 1

OS:AirLoopHVAC:ZoneMixer,
  {fcc64dc4-de2e-4955-969d-eca877d4fd5e}, !- Handle
  Air Loop HVAC Zone Mixer 1,             !- Name
  {f93d2f47-568c-4a50-8a13-035c2c54f67c}, !- Outlet Node Name
  {390cb5c4-011c-4d77-9c91-2d474039fb58}; !- Inlet Node Name 1

OS:Connection,
  {413ea880-5360-45fc-8498-01c8fd8e14a1}, !- Handle
  {a3b8c456-f22e-4a00-82a3-78af67018825}, !- Name
  {faccd362-2f0f-4251-b079-eb40af6598d3}, !- Source Object
  3,                                      !- Outlet Port
  {1ecc88ac-e76a-433b-9b37-27e5a93f73b2}, !- Target Object
  2;                                      !- Inlet Port

OS:Connection,
  {2b8879a0-0c69-4296-b6b1-056983fe7eb9}, !- Handle
  {f27431e9-64dc-49d1-9716-033b3fb159e0}, !- Name
  {1ecc88ac-e76a-433b-9b37-27e5a93f73b2}, !- Source Object
  3,                                      !- Outlet Port
  {2946401e-1320-4706-9cd5-2edc671354d0}, !- Target Object
  2;                                      !- Inlet Port

OS:Connection,
  {390cb5c4-011c-4d77-9c91-2d474039fb58}, !- Handle
  {fb57d712-689f-4588-8fd6-3350ec28eb4a}, !- Name
  {2946401e-1320-4706-9cd5-2edc671354d0}, !- Source Object
  3,                                      !- Outlet Port
  {fcc64dc4-de2e-4955-969d-eca877d4fd5e}, !- Target Object
  3;                                      !- Inlet Port

OS:Connection,
  {f93d2f47-568c-4a50-8a13-035c2c54f67c}, !- Handle
  {67e0da8a-38c6-4775-9e02-7ce53ce72d14}, !- Name
  {fcc64dc4-de2e-4955-969d-eca877d4fd5e}, !- Source Object
  2,                                      !- Outlet Port
  {01cee715-0c15-4362-97d5-2c9d65a9d3d3}, !- Target Object
  2;                                      !- Inlet Port

OS:Sizing:System,
  {75feb551-740f-48ce-ac87-22372bd1e138}, !- Handle
  {d4699c3b-b439-470e-b39c-f802281df113}, !- AirLoop Name
  Sensible,                               !- Type of Load to Size On
  Autosize,                               !- Design Outdoor Air Flow Rate {m3/s}
  0.3,                                    !- Minimum System Air Flow Ratio
  7,                                      !- Preheat Design Temperature {C}
  0.008,                                  !- Preheat Design Humidity Ratio {kg-H2O/kg-Air}
  12.8,                                   !- Precool Design Temperature {C}
  0.008,                                  !- Precool Design Humidity Ratio {kg-H2O/kg-Air}
  12.8,                                   !- Central Cooling Design Supply Air Temperature {C}
  16.7,                                   !- Central Heating Design Supply Air Temperature {C}
  NonCoincident,                          !- Sizing Option
  Yes,                                    !- 100% Outdoor Air in Cooling
  Yes,                                    !- 100% Outdoor Air in Heating
  0.0085,                                 !- Central Cooling Design Supply Air Humidity Ratio {kg-H2O/kg-Air}
  0.008,                                  !- Central Heating Design Supply Air Humidity Ratio {kg-H2O/kg-Air}
  DesignDay,                              !- Cooling Design Air Flow Method
  0,                                      !- Cooling Design Air Flow Rate {m3/s}
  DesignDay,                              !- Heating Design Air Flow Method
  0,                                      !- Heating Design Air Flow Rate {m3/s}
  ZoneSum,                                !- System Outdoor Air Method
  1,                                      !- Zone Maximum Outdoor Air Fraction {dimensionless}
  0.0099676501,                           !- Cooling Supply Air Flow Rate Per Floor Area {m3/s-m2}
  1,                                      !- Cooling Fraction of Autosized Cooling Supply Air Flow Rate
  3.9475456e-005,                         !- Cooling Supply Air Flow Rate Per Unit Cooling Capacity {m3/s-W}
  0.0099676501,                           !- Heating Supply Air Flow Rate Per Floor Area {m3/s-m2}
  1,                                      !- Heating Fraction of Autosized Heating Supply Air Flow Rate
  1,                                      !- Heating Fraction of Autosized Cooling Supply Air Flow Rate
  3.1588213e-005,                         !- Heating Supply Air Flow Rate Per Unit Heating Capacity {m3/s-W}
  CoolingDesignCapacity,                  !- Cooling Design Capacity Method
  autosize,                               !- Cooling Design Capacity {W}
  234.7,                                  !- Cooling Design Capacity Per Floor Area {W/m2}
  1,                                      !- Fraction of Autosized Cooling Design Capacity
  HeatingDesignCapacity,                  !- Heating Design Capacity Method
  autosize,                               !- Heating Design Capacity {W}
  157,                                    !- Heating Design Capacity Per Floor Area {W/m2}
  1,                                      !- Fraction of Autosized Heating Design Capacity
  OnOff;                                  !- Central Cooling Capacity Control Method

OS:Schedule:Constant,
  {5955c484-77f7-483a-a3f0-589e79635dbb}, !- Handle
  Always On Discrete,                     !- Name
  {945e2690-c41b-4977-bd21-13fef42c6d96}, !- Schedule Type Limits Name
  1;                                      !- Value

OS:ScheduleTypeLimits,
  {945e2690-c41b-4977-bd21-13fef42c6d96}, !- Handle
  OnOff,                                  !- Name
  0,                                      !- Lower Limit Value
  1,                                      !- Upper Limit Value
  Discrete,                               !- Numeric Type
  Availability;                           !- Unit Type

OS:AvailabilityManagerAssignmentList,
  {b0d8c297-0671-48b9-8ad9-de263fecd6ff}, !- Handle
  Air Loop HVAC 1 AvailabilityManagerAssignmentList; !- Name

OS:Coil:Heating:Water,
  {b021a469-f7c4-4738-8a39-14308b51a01e}, !- Handle
  Coil Heating Water 1,                   !- Name
  {5955c484-77f7-483a-a3f0-589e79635dbb}, !- Availability Schedule Name
  ,                                       !- U-Factor Times Area Value {W/K}
  ,                                       !- Maximum Water Flow Rate {m3/s}
  ,                                       !- Water Inlet Node Name
  ,                                       !- Water Outlet Node Name
  {71a21ad8-076e-48be-a886-3d9bf7cc39d3}, !- Air Inlet Node Name
  {00f922bf-b84a-4036-aea3-32510bcc8398}, !- Air Outlet Node Name
  ,                                       !- Performance Input Method
  ,                                       !- Rated Capacity {W}
  ,                                       !- Rated Inlet Water Temperature {C}
  ,                                       !- Rated Inlet Air Temperature {C}
  ,                                       !- Rated Outlet Water Temperature {C}
  ,                                       !- Rated Outlet Air Temperature {C}
  ;                                       !- Rated Ratio for Air and Water Convection

OS:Connection,
  {71a21ad8-076e-48be-a886-3d9bf7cc39d3}, !- Handle
  {686ff4d7-1772-408d-93e4-36c15641ba14}, !- Name
  {d33c3268-7cfd-4934-b452-d4dbca174376}, !- Source Object
  3,                                      !- Outlet Port
  {b021a469-f7c4-4738-8a39-14308b51a01e}, !- Target Object
  7;                                      !- Inlet Port

OS:Connection,
  {00f922bf-b84a-4036-aea3-32510bcc8398}, !- Handle
  {77996669-fad6-4895-bb47-4598f7ebf56f}, !- Name
  {b021a469-f7c4-4738-8a39-14308b51a01e}, !- Source Object
  8,                                      !- Outlet Port
  {367b9eac-e50b-4b05-8171-e0696e931df2}, !- Target Object
  2;                                      !- Inlet Port

