
OS:Version,
  {23f7ad4a-79c0-499d-87d1-ccebd3859206}, !- Handle
  2.4.0;                                  !- Version Identifier

OS:AirLoopHVAC,
  {45289b18-73b9-44e4-882b-6881674d9f3d}, !- Handle
  Air Loop HVAC 1,                        !- Name
  ,                                       !- Controller List Name
  {db67c9a8-5bd5-4aab-b5f4-1eafa7bd7728}, !- Availability Schedule
  {29568b68-87ab-4131-986b-ebc5c60a29dd}, !- Availability Manager List Name
  AutoSize,                               !- Design Supply Air Flow Rate {m3/s}
  ,                                       !- Branch List Name
  ,                                       !- Connector List Name
  {73332963-e1e4-4519-97fc-e807be1b4a1f}, !- Supply Side Inlet Node Name
  {b7eefa28-6322-42a0-9fe0-d5d4d752722f}, !- Demand Side Outlet Node Name
  {9826e294-923e-4a0a-b41b-cfabb5f8680e}, !- Demand Side Inlet Node A
  {ebe1422f-8a32-4046-986d-0f4d8b511789}, !- Supply Side Outlet Node A
  ,                                       !- Demand Side Inlet Node B
  ,                                       !- Supply Side Outlet Node B
  ,                                       !- Return Air Bypass Flow Temperature Setpoint Schedule Name
  {22f178bf-219b-459c-b527-ce31c0b68761}, !- Demand Mixer Name
  {db3a028f-5414-4d56-b658-16965be7c472}, !- Demand Splitter A Name
  ,                                       !- Demand Splitter B Name
  ;                                       !- Supply Splitter Name

OS:Node,
  {211ba09e-a8ec-4942-8d8f-dc790f257242}, !- Handle
  Node 1,                                 !- Name
  {73332963-e1e4-4519-97fc-e807be1b4a1f}, !- Inlet Port
  {fafcaf05-4761-4f89-aa3c-2f7c8bb661c9}; !- Outlet Port

OS:Node,
  {64128f62-6222-47ba-9714-4176518bab1c}, !- Handle
  Node 2,                                 !- Name
  {54fabd17-08d9-415c-b8f0-6e7f48962133}, !- Inlet Port
  {ebe1422f-8a32-4046-986d-0f4d8b511789}; !- Outlet Port

OS:Connection,
  {73332963-e1e4-4519-97fc-e807be1b4a1f}, !- Handle
  {f8eff169-bc6c-4c98-b6ae-f3439e5d2539}, !- Name
  {45289b18-73b9-44e4-882b-6881674d9f3d}, !- Source Object
  8,                                      !- Outlet Port
  {211ba09e-a8ec-4942-8d8f-dc790f257242}, !- Target Object
  2;                                      !- Inlet Port

OS:Connection,
  {ebe1422f-8a32-4046-986d-0f4d8b511789}, !- Handle
  {07a42ac4-1438-49f9-942a-1a6d59de133a}, !- Name
  {64128f62-6222-47ba-9714-4176518bab1c}, !- Source Object
  3,                                      !- Outlet Port
  {45289b18-73b9-44e4-882b-6881674d9f3d}, !- Target Object
  11;                                     !- Inlet Port

OS:Node,
  {f8418274-bd76-408e-ac69-532f42d0b511}, !- Handle
  Node 3,                                 !- Name
  {9826e294-923e-4a0a-b41b-cfabb5f8680e}, !- Inlet Port
  {12448920-7503-4dbd-9031-1ea68509c60d}; !- Outlet Port

OS:Node,
  {38fe2976-3d07-4eee-8f7d-c72eee49aad2}, !- Handle
  Node 4,                                 !- Name
  {de2eeed2-b7a2-48ba-9e35-8e199a82b2ce}, !- Inlet Port
  {b7eefa28-6322-42a0-9fe0-d5d4d752722f}; !- Outlet Port

OS:Node,
  {1122eca6-5c04-4656-8305-56090db41dc7}, !- Handle
  Node 5,                                 !- Name
  {56f55639-27ed-4d71-8c5e-f0c07c2483a6}, !- Inlet Port
  {87f8ac31-b518-4f81-8a20-15e0f276a8b2}; !- Outlet Port

OS:Connection,
  {9826e294-923e-4a0a-b41b-cfabb5f8680e}, !- Handle
  {65bb3de7-2ffb-4ad0-a30d-bb0da98faaba}, !- Name
  {45289b18-73b9-44e4-882b-6881674d9f3d}, !- Source Object
  10,                                     !- Outlet Port
  {f8418274-bd76-408e-ac69-532f42d0b511}, !- Target Object
  2;                                      !- Inlet Port

OS:Connection,
  {b7eefa28-6322-42a0-9fe0-d5d4d752722f}, !- Handle
  {bd6dc4fd-8ef3-4e1f-b856-3d5d6c11acd7}, !- Name
  {38fe2976-3d07-4eee-8f7d-c72eee49aad2}, !- Source Object
  3,                                      !- Outlet Port
  {45289b18-73b9-44e4-882b-6881674d9f3d}, !- Target Object
  9;                                      !- Inlet Port

OS:AirLoopHVAC:ZoneSplitter,
  {db3a028f-5414-4d56-b658-16965be7c472}, !- Handle
  Air Loop HVAC Zone Splitter 1,          !- Name
  {12448920-7503-4dbd-9031-1ea68509c60d}, !- Inlet Node Name
  {56f55639-27ed-4d71-8c5e-f0c07c2483a6}; !- Outlet Node Name 1

OS:AirLoopHVAC:ZoneMixer,
  {22f178bf-219b-459c-b527-ce31c0b68761}, !- Handle
  Air Loop HVAC Zone Mixer 1,             !- Name
  {de2eeed2-b7a2-48ba-9e35-8e199a82b2ce}, !- Outlet Node Name
  {87f8ac31-b518-4f81-8a20-15e0f276a8b2}; !- Inlet Node Name 1

OS:Connection,
  {12448920-7503-4dbd-9031-1ea68509c60d}, !- Handle
  {0cd205fe-9ba1-4b36-8db1-b0e845edf4b0}, !- Name
  {f8418274-bd76-408e-ac69-532f42d0b511}, !- Source Object
  3,                                      !- Outlet Port
  {db3a028f-5414-4d56-b658-16965be7c472}, !- Target Object
  2;                                      !- Inlet Port

OS:Connection,
  {56f55639-27ed-4d71-8c5e-f0c07c2483a6}, !- Handle
  {447542fb-f2b5-4c51-967e-acdd4f087c45}, !- Name
  {db3a028f-5414-4d56-b658-16965be7c472}, !- Source Object
  3,                                      !- Outlet Port
  {1122eca6-5c04-4656-8305-56090db41dc7}, !- Target Object
  2;                                      !- Inlet Port

OS:Connection,
  {87f8ac31-b518-4f81-8a20-15e0f276a8b2}, !- Handle
  {e464f947-67b1-4b6b-90ed-0d52b1d33634}, !- Name
  {1122eca6-5c04-4656-8305-56090db41dc7}, !- Source Object
  3,                                      !- Outlet Port
  {22f178bf-219b-459c-b527-ce31c0b68761}, !- Target Object
  3;                                      !- Inlet Port

OS:Connection,
  {de2eeed2-b7a2-48ba-9e35-8e199a82b2ce}, !- Handle
  {83d61612-7e27-41c3-92f9-e82765bcf205}, !- Name
  {22f178bf-219b-459c-b527-ce31c0b68761}, !- Source Object
  2,                                      !- Outlet Port
  {38fe2976-3d07-4eee-8f7d-c72eee49aad2}, !- Target Object
  2;                                      !- Inlet Port

OS:Sizing:System,
  {b2d81245-b7d9-4023-9d37-ceeb2efed2a1}, !- Handle
  {45289b18-73b9-44e4-882b-6881674d9f3d}, !- AirLoop Name
  Sensible,                               !- Type of Load to Size On
  Autosize,                               !- Design Outdoor Air Flow Rate {m3/s}
  0.3,                                    !- Minimum System Air Flow Ratio
  7,                                      !- Preheat Design Temperature {C}
  0.008,                                  !- Preheat Design Humidity Ratio {kg-H2O/kg-Air}
  12.8,                                   !- Precool Design Temperature {C}
  0.008,                                  !- Precool Design Humidity Ratio {kg-H2O/kg-Air}
  12.8,                                   !- Central Cooling Design Supply Air Temperature {C}
  16.7,                                   !- Central Heating Design Supply Air Temperature {C}
  NonCoincident,                          !- Sizing Option
  Yes,                                    !- 100% Outdoor Air in Cooling
  Yes,                                    !- 100% Outdoor Air in Heating
  0.0085,                                 !- Central Cooling Design Supply Air Humidity Ratio {kg-H2O/kg-Air}
  0.008,                                  !- Central Heating Design Supply Air Humidity Ratio {kg-H2O/kg-Air}
  DesignDay,                              !- Cooling Design Air Flow Method
  0,                                      !- Cooling Design Air Flow Rate {m3/s}
  DesignDay,                              !- Heating Design Air Flow Method
  0,                                      !- Heating Design Air Flow Rate {m3/s}
  ZoneSum,                                !- System Outdoor Air Method
  1,                                      !- Zone Maximum Outdoor Air Fraction {dimensionless}
  0.0099676501,                           !- Cooling Supply Air Flow Rate Per Floor Area {m3/s-m2}
  1,                                      !- Cooling Fraction of Autosized Cooling Supply Air Flow Rate
  3.9475456e-005,                         !- Cooling Supply Air Flow Rate Per Unit Cooling Capacity {m3/s-W}
  0.0099676501,                           !- Heating Supply Air Flow Rate Per Floor Area {m3/s-m2}
  1,                                      !- Heating Fraction of Autosized Heating Supply Air Flow Rate
  1,                                      !- Heating Fraction of Autosized Cooling Supply Air Flow Rate
  3.1588213e-005,                         !- Heating Supply Air Flow Rate Per Unit Heating Capacity {m3/s-W}
  CoolingDesignCapacity,                  !- Cooling Design Capacity Method
  autosize,                               !- Cooling Design Capacity {W}
  234.7,                                  !- Cooling Design Capacity Per Floor Area {W/m2}
  1,                                      !- Fraction of Autosized Cooling Design Capacity
  HeatingDesignCapacity,                  !- Heating Design Capacity Method
  autosize,                               !- Heating Design Capacity {W}
  157,                                    !- Heating Design Capacity Per Floor Area {W/m2}
  1,                                      !- Fraction of Autosized Heating Design Capacity
  OnOff;                                  !- Central Cooling Capacity Control Method

OS:Schedule:Constant,
  {db67c9a8-5bd5-4aab-b5f4-1eafa7bd7728}, !- Handle
  Always On Discrete,                     !- Name
  {736a0fd3-7bba-451d-a187-c473b4f285a3}, !- Schedule Type Limits Name
  1;                                      !- Value

OS:ScheduleTypeLimits,
  {736a0fd3-7bba-451d-a187-c473b4f285a3}, !- Handle
  OnOff,                                  !- Name
  0,                                      !- Lower Limit Value
  1,                                      !- Upper Limit Value
  Discrete,                               !- Numeric Type
  Availability;                           !- Unit Type

OS:AvailabilityManagerAssignmentList,
  {29568b68-87ab-4131-986b-ebc5c60a29dd}, !- Handle
  Air Loop HVAC 1 AvailabilityManagerAssignmentList; !- Name

OS:Coil:Heating:Water,
  {a04c04e8-f30f-41ef-b3e6-36f8d8cf0b78}, !- Handle
  Coil Heating Water 1[#67yZkL],          !- Name
  {db67c9a8-5bd5-4aab-b5f4-1eafa7bd7728}, !- Availability Schedule Name
  ,                                       !- U-Factor Times Area Value {W/K}
  ,                                       !- Maximum Water Flow Rate {m3/s}
  {01c3d7b7-4f47-4d2c-9e24-2549cbfa134b}, !- Water Inlet Node Name
  {7f938bda-b154-4519-9933-a2418665e747}, !- Water Outlet Node Name
  {fafcaf05-4761-4f89-aa3c-2f7c8bb661c9}, !- Air Inlet Node Name
  {54fabd17-08d9-415c-b8f0-6e7f48962133}, !- Air Outlet Node Name
  ,                                       !- Performance Input Method
  ,                                       !- Rated Capacity {W}
  ,                                       !- Rated Inlet Water Temperature {C}
  ,                                       !- Rated Inlet Air Temperature {C}
  ,                                       !- Rated Outlet Water Temperature {C}
  ,                                       !- Rated Outlet Air Temperature {C}
  ;                                       !- Rated Ratio for Air and Water Convection

OS:Connection,
  {fafcaf05-4761-4f89-aa3c-2f7c8bb661c9}, !- Handle
  {a6a9aa46-5bd9-4ae3-be5c-da5b4679ec3b}, !- Name
  {211ba09e-a8ec-4942-8d8f-dc790f257242}, !- Source Object
  3,                                      !- Outlet Port
  {a04c04e8-f30f-41ef-b3e6-36f8d8cf0b78}, !- Target Object
  7;                                      !- Inlet Port

OS:Connection,
  {54fabd17-08d9-415c-b8f0-6e7f48962133}, !- Handle
  {3e2bfba7-7098-4d1c-b6a9-79b570398750}, !- Name
  {a04c04e8-f30f-41ef-b3e6-36f8d8cf0b78}, !- Source Object
  8,                                      !- Outlet Port
  {64128f62-6222-47ba-9714-4176518bab1c}, !- Target Object
  2;                                      !- Inlet Port

OS:PlantLoop,
  {e548e3d1-bc18-4697-9c12-0a933d2dbb92}, !- Handle
  Plant Loop 1,                           !- Name
  Water,                                  !- Fluid Type
  0,                                      !- Glycol Concentration
  ,                                       !- User Defined Fluid Type
  ,                                       !- Plant Equipment Operation Heating Load
  ,                                       !- Plant Equipment Operation Cooling Load
  ,                                       !- Primary Plant Equipment Operation Scheme
  {6adcc305-eb5b-4a78-a65f-a2d9741dffb1}, !- Loop Temperature Setpoint Node Name
  ,                                       !- Maximum Loop Temperature {C}
  ,                                       !- Minimum Loop Temperature {C}
  ,                                       !- Maximum Loop Flow Rate {m3/s}
  ,                                       !- Minimum Loop Flow Rate {m3/s}
  Autocalculate,                          !- Plant Loop Volume {m3}
  {1bfb6ca6-bcc2-42d7-9bcc-7e89342abedb}, !- Plant Side Inlet Node Name
  {8f7f3c1d-b02c-4178-ad2a-362ffe9e8e61}, !- Plant Side Outlet Node Name
  ,                                       !- Plant Side Branch List Name
  {869318b4-39cb-4f2f-8eef-1afd734cd257}, !- Demand Side Inlet Node Name
  {be4b5a93-5c9f-4edb-a77e-7820b7bd37c7}, !- Demand Side Outlet Node Name
  ,                                       !- Demand Side Branch List Name
  ,                                       !- Demand Side Connector List Name
  Optimal,                                !- Load Distribution Scheme
  {b60e6cd1-e2f1-4180-9846-de5e8f81b1b1}, !- Availability Manager List Name
  ,                                       !- Plant Loop Demand Calculation Scheme
  ,                                       !- Common Pipe Simulation
  ,                                       !- Pressure Simulation Type
  ,                                       !- Plant Equipment Operation Heating Load Schedule
  ,                                       !- Plant Equipment Operation Cooling Load Schedule
  ,                                       !- Primary Plant Equipment Operation Scheme Schedule
  ,                                       !- Component Setpoint Operation Scheme Schedule
  {2bd0e627-9644-42fa-bcc5-b12e881cef8c}, !- Demand Mixer Name
  {e0eebb28-01f0-4680-acbd-6e295d2394d9}, !- Demand Splitter Name
  {0ad2b38c-dfb7-4769-be9d-3dc33a1e8778}, !- Supply Mixer Name
  {ed3d06d9-3dce-4aa1-b200-c88ce0a8b3db}; !- Supply Splitter Name

OS:Sizing:Plant,
  {d8899aba-4150-41f5-ae42-68667aa941b9}, !- Handle
  {e548e3d1-bc18-4697-9c12-0a933d2dbb92}, !- Plant or Condenser Loop Name
  Heating,                                !- Loop Type
  82,                                     !- Design Loop Exit Temperature {C}
  11,                                     !- Loop Design Temperature Difference {deltaC}
  NonCoincident,                          !- Sizing Option
  1,                                      !- Zone Timesteps in Averaging Window
  None;                                   !- Coincident Sizing Factor Mode

OS:Node,
  {dfb4d247-dd7b-4324-8e21-4578735d5921}, !- Handle
  Node 6,                                 !- Name
  {1bfb6ca6-bcc2-42d7-9bcc-7e89342abedb}, !- Inlet Port
  {5625bc2e-07c3-48f2-82c2-f870b2d17857}; !- Outlet Port

OS:Node,
  {6adcc305-eb5b-4a78-a65f-a2d9741dffb1}, !- Handle
  Node 7,                                 !- Name
  {758a2bbb-7a64-4d57-ac5e-a8e38ea15a9f}, !- Inlet Port
  {8f7f3c1d-b02c-4178-ad2a-362ffe9e8e61}; !- Outlet Port

OS:Node,
  {641df901-682b-4c12-91d9-73584c717721}, !- Handle
  Node 8,                                 !- Name
  {2c58e09a-3f73-4d83-8868-8758f71806d9}, !- Inlet Port
  {aa13e1ae-306f-4053-9758-8c98e0738d56}; !- Outlet Port

OS:Connector:Mixer,
  {0ad2b38c-dfb7-4769-be9d-3dc33a1e8778}, !- Handle
  Connector Mixer 1,                      !- Name
  {758a2bbb-7a64-4d57-ac5e-a8e38ea15a9f}, !- Outlet Branch Name
  {9097ba0f-f6e3-482c-a0e5-4a9426c780b3}, !- Inlet Branch Name 1
  {e99b0328-2f3d-4e75-9512-ed5265b8b1b8}; !- Inlet Branch Name 2

OS:Connector:Splitter,
  {ed3d06d9-3dce-4aa1-b200-c88ce0a8b3db}, !- Handle
  Connector Splitter 1,                   !- Name
  {5625bc2e-07c3-48f2-82c2-f870b2d17857}, !- Inlet Branch Name
  {2c58e09a-3f73-4d83-8868-8758f71806d9}, !- Outlet Branch Name 1
  {95bb4629-c531-4e78-9d2e-d9b6856737c6}; !- Outlet Branch Name 2

OS:Connection,
  {1bfb6ca6-bcc2-42d7-9bcc-7e89342abedb}, !- Handle
  {2abd7d8f-2afb-4c55-ba52-12e1a3315371}, !- Name
  {e548e3d1-bc18-4697-9c12-0a933d2dbb92}, !- Source Object
  14,                                     !- Outlet Port
  {dfb4d247-dd7b-4324-8e21-4578735d5921}, !- Target Object
  2;                                      !- Inlet Port

OS:Connection,
  {5625bc2e-07c3-48f2-82c2-f870b2d17857}, !- Handle
  {ea474012-2dad-4fbd-9e8f-59a624f556e0}, !- Name
  {dfb4d247-dd7b-4324-8e21-4578735d5921}, !- Source Object
  3,                                      !- Outlet Port
  {ed3d06d9-3dce-4aa1-b200-c88ce0a8b3db}, !- Target Object
  2;                                      !- Inlet Port

OS:Connection,
  {2c58e09a-3f73-4d83-8868-8758f71806d9}, !- Handle
  {7a257f8c-8a16-4bd7-8e4c-6206f3c1e52e}, !- Name
  {ed3d06d9-3dce-4aa1-b200-c88ce0a8b3db}, !- Source Object
  3,                                      !- Outlet Port
  {641df901-682b-4c12-91d9-73584c717721}, !- Target Object
  2;                                      !- Inlet Port

OS:Connection,
  {758a2bbb-7a64-4d57-ac5e-a8e38ea15a9f}, !- Handle
  {502ee818-f613-4e50-b15b-2d5fe5fbec26}, !- Name
  {0ad2b38c-dfb7-4769-be9d-3dc33a1e8778}, !- Source Object
  2,                                      !- Outlet Port
  {6adcc305-eb5b-4a78-a65f-a2d9741dffb1}, !- Target Object
  2;                                      !- Inlet Port

OS:Connection,
  {8f7f3c1d-b02c-4178-ad2a-362ffe9e8e61}, !- Handle
  {8d0393e9-88ae-42bf-8144-29c9e03e27a7}, !- Name
  {6adcc305-eb5b-4a78-a65f-a2d9741dffb1}, !- Source Object
  3,                                      !- Outlet Port
  {e548e3d1-bc18-4697-9c12-0a933d2dbb92}, !- Target Object
  15;                                     !- Inlet Port

OS:Node,
  {b28fb2e8-bd8e-4d92-8517-f538aa2f6c16}, !- Handle
  Node 9,                                 !- Name
  {869318b4-39cb-4f2f-8eef-1afd734cd257}, !- Inlet Port
  {cd71e3ca-5a97-4222-9269-c7e6aec71ad1}; !- Outlet Port

OS:Node,
  {e567be12-8655-4834-8572-b8aadd856342}, !- Handle
  Node 10,                                !- Name
  {1d5a5645-bf3f-4e6a-b82b-e734c38c32e7}, !- Inlet Port
  {be4b5a93-5c9f-4edb-a77e-7820b7bd37c7}; !- Outlet Port

OS:Node,
  {59a543ab-56b5-4795-a29c-bd8e55278afd}, !- Handle
  Node 11,                                !- Name
  {564b0642-16ce-4c2d-8066-8cd348ed14cc}, !- Inlet Port
  {01c3d7b7-4f47-4d2c-9e24-2549cbfa134b}; !- Outlet Port

OS:Connector:Mixer,
  {2bd0e627-9644-42fa-bcc5-b12e881cef8c}, !- Handle
  Connector Mixer 2,                      !- Name
  {1d5a5645-bf3f-4e6a-b82b-e734c38c32e7}, !- Outlet Branch Name
  {d40ea332-283f-4d0e-b346-efc84f59eabf}, !- Inlet Branch Name 1
  {e7733697-f1e4-4519-8e91-696bb10ebdc2}; !- Inlet Branch Name 2

OS:Connector:Splitter,
  {e0eebb28-01f0-4680-acbd-6e295d2394d9}, !- Handle
  Connector Splitter 2,                   !- Name
  {cd71e3ca-5a97-4222-9269-c7e6aec71ad1}, !- Inlet Branch Name
  {564b0642-16ce-4c2d-8066-8cd348ed14cc}, !- Outlet Branch Name 1
  {e51e3e5e-22b4-4457-a4a9-3af4df36385a}; !- Outlet Branch Name 2

OS:Connection,
  {869318b4-39cb-4f2f-8eef-1afd734cd257}, !- Handle
  {fb1825a4-71c9-4e3c-bcb2-10d8ba891fd5}, !- Name
  {e548e3d1-bc18-4697-9c12-0a933d2dbb92}, !- Source Object
  17,                                     !- Outlet Port
  {b28fb2e8-bd8e-4d92-8517-f538aa2f6c16}, !- Target Object
  2;                                      !- Inlet Port

OS:Connection,
  {cd71e3ca-5a97-4222-9269-c7e6aec71ad1}, !- Handle
  {f401a1c1-afc9-46de-abbd-2b5121ea9497}, !- Name
  {b28fb2e8-bd8e-4d92-8517-f538aa2f6c16}, !- Source Object
  3,                                      !- Outlet Port
  {e0eebb28-01f0-4680-acbd-6e295d2394d9}, !- Target Object
  2;                                      !- Inlet Port

OS:Connection,
  {564b0642-16ce-4c2d-8066-8cd348ed14cc}, !- Handle
  {8275a814-2097-441e-8ac3-d6ce508b8264}, !- Name
  {e0eebb28-01f0-4680-acbd-6e295d2394d9}, !- Source Object
  3,                                      !- Outlet Port
  {59a543ab-56b5-4795-a29c-bd8e55278afd}, !- Target Object
  2;                                      !- Inlet Port

OS:Connection,
  {1d5a5645-bf3f-4e6a-b82b-e734c38c32e7}, !- Handle
  {c48c0f3d-dcc9-461a-a297-9531ed85b764}, !- Name
  {2bd0e627-9644-42fa-bcc5-b12e881cef8c}, !- Source Object
  2,                                      !- Outlet Port
  {e567be12-8655-4834-8572-b8aadd856342}, !- Target Object
  2;                                      !- Inlet Port

OS:Connection,
  {be4b5a93-5c9f-4edb-a77e-7820b7bd37c7}, !- Handle
  {6479a44c-7a91-4b22-9113-344c55d1e70c}, !- Name
  {e567be12-8655-4834-8572-b8aadd856342}, !- Source Object
  3,                                      !- Outlet Port
  {e548e3d1-bc18-4697-9c12-0a933d2dbb92}, !- Target Object
  18;                                     !- Inlet Port

OS:AvailabilityManagerAssignmentList,
  {b60e6cd1-e2f1-4180-9846-de5e8f81b1b1}, !- Handle
  Plant Loop 1 AvailabilityManagerAssignmentList; !- Name

OS:Boiler:HotWater,
  {fa5de092-c27e-488e-8a02-0913537df2fb}, !- Handle
  Boiler Hot Water 1,                     !- Name
  ,                                       !- Fuel Type
  ,                                       !- Nominal Capacity {W}
  ,                                       !- Nominal Thermal Efficiency
  ,                                       !- Efficiency Curve Temperature Evaluation Variable
  ,                                       !- Normalized Boiler Efficiency Curve Name
  ,                                       !- Design Water Outlet Temperature {C}
  ,                                       !- Design Water Flow Rate {m3/s}
  ,                                       !- Minimum Part Load Ratio
  ,                                       !- Maximum Part Load Ratio
  ,                                       !- Optimum Part Load Ratio
  {aa13e1ae-306f-4053-9758-8c98e0738d56}, !- Boiler Water Inlet Node Name
  {ed323708-ca23-4311-9208-79fb2b6595ee}, !- Boiler Water Outlet Node Name
  99,                                     !- Water Outlet Upper Temperature Limit {C}
  ConstantFlow,                           !- Boiler Flow Mode
  0,                                      !- Parasitic Electric Load {W}
  1;                                      !- Sizing Factor

OS:Node,
  {34abb460-21df-49ce-b606-b0f083d5d62c}, !- Handle
  Node 12,                                !- Name
  {ed323708-ca23-4311-9208-79fb2b6595ee}, !- Inlet Port
  {9097ba0f-f6e3-482c-a0e5-4a9426c780b3}; !- Outlet Port

OS:Connection,
  {aa13e1ae-306f-4053-9758-8c98e0738d56}, !- Handle
  {7331a481-ce41-4ced-8fd2-b20d9842109e}, !- Name
  {641df901-682b-4c12-91d9-73584c717721}, !- Source Object
  3,                                      !- Outlet Port
  {fa5de092-c27e-488e-8a02-0913537df2fb}, !- Target Object
  12;                                     !- Inlet Port

OS:Connection,
  {ed323708-ca23-4311-9208-79fb2b6595ee}, !- Handle
  {06e05999-4777-415a-9e5d-0e0e2b69cb3d}, !- Name
  {fa5de092-c27e-488e-8a02-0913537df2fb}, !- Source Object
  13,                                     !- Outlet Port
  {34abb460-21df-49ce-b606-b0f083d5d62c}, !- Target Object
  2;                                      !- Inlet Port

OS:Connection,
  {9097ba0f-f6e3-482c-a0e5-4a9426c780b3}, !- Handle
  {8b6ccfdd-74fb-44e7-b5c6-4bf30029b9b5}, !- Name
  {34abb460-21df-49ce-b606-b0f083d5d62c}, !- Source Object
  3,                                      !- Outlet Port
  {0ad2b38c-dfb7-4769-be9d-3dc33a1e8778}, !- Target Object
  3;                                      !- Inlet Port

OS:Node,
  {75275ba7-6f60-40cd-94b1-9acb40b5a4cd}, !- Handle
  Node 13,                                !- Name
  {7f938bda-b154-4519-9933-a2418665e747}, !- Inlet Port
  {d40ea332-283f-4d0e-b346-efc84f59eabf}; !- Outlet Port

OS:Connection,
  {01c3d7b7-4f47-4d2c-9e24-2549cbfa134b}, !- Handle
  {1892adf4-b844-4ba8-8206-543b715ef45c}, !- Name
  {59a543ab-56b5-4795-a29c-bd8e55278afd}, !- Source Object
  3,                                      !- Outlet Port
  {a04c04e8-f30f-41ef-b3e6-36f8d8cf0b78}, !- Target Object
  5;                                      !- Inlet Port

OS:Connection,
  {7f938bda-b154-4519-9933-a2418665e747}, !- Handle
  {6ec45982-bf33-4a88-a858-867fa4333087}, !- Name
  {a04c04e8-f30f-41ef-b3e6-36f8d8cf0b78}, !- Source Object
  6,                                      !- Outlet Port
  {75275ba7-6f60-40cd-94b1-9acb40b5a4cd}, !- Target Object
  2;                                      !- Inlet Port

OS:Connection,
  {d40ea332-283f-4d0e-b346-efc84f59eabf}, !- Handle
  {dffe8448-ebef-476d-a00c-eba4676a79a1}, !- Name
  {75275ba7-6f60-40cd-94b1-9acb40b5a4cd}, !- Source Object
  3,                                      !- Outlet Port
  {2bd0e627-9644-42fa-bcc5-b12e881cef8c}, !- Target Object
  3;                                      !- Inlet Port

OS:Controller:WaterCoil,
  {c8e9ece5-4699-4bc2-ab58-d0062f504120}, !- Handle
  Controller Water Coil 1,                !- Name
  {a04c04e8-f30f-41ef-b3e6-36f8d8cf0b78}, !- Water Coil Name
  ,                                       !- Control Variable
  Normal,                                 !- Action
  ,                                       !- Actuator Variable
  ,                                       !- Sensor Node Name
  ,                                       !- Actuator Node Name
  ,                                       !- Controller Convergence Tolerance {deltaC}
  ,                                       !- Maximum Actuated Flow {m3/s}
  0;                                      !- Minimum Actuated Flow {m3/s}

OS:Boiler:HotWater,
  {6734af9a-4bb7-4fd7-bd36-60d0f7698aef}, !- Handle
  Boiler Hot Water 2,                     !- Name
  ,                                       !- Fuel Type
  ,                                       !- Nominal Capacity {W}
  ,                                       !- Nominal Thermal Efficiency
  ,                                       !- Efficiency Curve Temperature Evaluation Variable
  ,                                       !- Normalized Boiler Efficiency Curve Name
  ,                                       !- Design Water Outlet Temperature {C}
  ,                                       !- Design Water Flow Rate {m3/s}
  ,                                       !- Minimum Part Load Ratio
  ,                                       !- Maximum Part Load Ratio
  ,                                       !- Optimum Part Load Ratio
  {65b73750-1423-4903-90fc-515deecf5f15}, !- Boiler Water Inlet Node Name
  {283003f1-9ec7-4c21-a45b-f63fdca7f0ff}, !- Boiler Water Outlet Node Name
  99,                                     !- Water Outlet Upper Temperature Limit {C}
  ConstantFlow,                           !- Boiler Flow Mode
  0,                                      !- Parasitic Electric Load {W}
  1;                                      !- Sizing Factor

OS:Node,
  {9440111a-1048-4509-83b9-17b62ce082cb}, !- Handle
  Node 14,                                !- Name
  {95bb4629-c531-4e78-9d2e-d9b6856737c6}, !- Inlet Port
  {65b73750-1423-4903-90fc-515deecf5f15}; !- Outlet Port

OS:Connection,
  {95bb4629-c531-4e78-9d2e-d9b6856737c6}, !- Handle
  {ca0be870-2a27-49cc-a269-c531e66fa1f1}, !- Name
  {ed3d06d9-3dce-4aa1-b200-c88ce0a8b3db}, !- Source Object
  4,                                      !- Outlet Port
  {9440111a-1048-4509-83b9-17b62ce082cb}, !- Target Object
  2;                                      !- Inlet Port

OS:Node,
  {6e2a62e7-ce22-4769-a568-8de331848a4c}, !- Handle
  Node 15,                                !- Name
  {283003f1-9ec7-4c21-a45b-f63fdca7f0ff}, !- Inlet Port
  {e99b0328-2f3d-4e75-9512-ed5265b8b1b8}; !- Outlet Port

OS:Connection,
  {65b73750-1423-4903-90fc-515deecf5f15}, !- Handle
  {cd91b295-490e-47ee-ad73-f87671a17589}, !- Name
  {9440111a-1048-4509-83b9-17b62ce082cb}, !- Source Object
  3,                                      !- Outlet Port
  {6734af9a-4bb7-4fd7-bd36-60d0f7698aef}, !- Target Object
  12;                                     !- Inlet Port

OS:Connection,
  {283003f1-9ec7-4c21-a45b-f63fdca7f0ff}, !- Handle
  {9a8020a9-1cca-4b44-8d27-6e9003bc3dc9}, !- Name
  {6734af9a-4bb7-4fd7-bd36-60d0f7698aef}, !- Source Object
  13,                                     !- Outlet Port
  {6e2a62e7-ce22-4769-a568-8de331848a4c}, !- Target Object
  2;                                      !- Inlet Port

OS:Connection,
  {e99b0328-2f3d-4e75-9512-ed5265b8b1b8}, !- Handle
  {c64b2d93-4aa4-40d5-bbaa-16c2da565d2d}, !- Name
  {6e2a62e7-ce22-4769-a568-8de331848a4c}, !- Source Object
  3,                                      !- Outlet Port
  {0ad2b38c-dfb7-4769-be9d-3dc33a1e8778}, !- Target Object
  4;                                      !- Inlet Port

OS:Coil:Heating:Water,
  {67349926-d1ea-4aab-b10a-d32edd241d79}, !- Handle
  Coil Heating Water 1[#QKIb6Y],          !- Name
  {db67c9a8-5bd5-4aab-b5f4-1eafa7bd7728}, !- Availability Schedule Name
  ,                                       !- U-Factor Times Area Value {W/K}
  ,                                       !- Maximum Water Flow Rate {m3/s}
  {be4e30f3-ad19-4ef5-89c8-0595fd3b8be8}, !- Water Inlet Node Name
  {02547069-c132-4a5c-8425-6c27c32d2195}, !- Water Outlet Node Name
  ,                                       !- Air Inlet Node Name
  ,                                       !- Air Outlet Node Name
  ,                                       !- Performance Input Method
  ,                                       !- Rated Capacity {W}
  ,                                       !- Rated Inlet Water Temperature {C}
  ,                                       !- Rated Inlet Air Temperature {C}
  ,                                       !- Rated Outlet Water Temperature {C}
  ,                                       !- Rated Outlet Air Temperature {C}
  ;                                       !- Rated Ratio for Air and Water Convection

OS:Node,