
OS:Version,
  {1d6ecb15-c677-4dc7-bcb9-9fbc40b54f17}, !- Handle
  2.4.0;                                  !- Version Identifier

! TrackingID:#[AKDPt6]
OS:AirLoopHVAC,
  {c50e5386-fd31-4561-b925-5f64fe551471}, !- Handle
  Air Loop HVAC 1,                        !- Name
  ,                                       !- Controller List Name
  {3a8524e4-3344-475a-a1c5-8c026a58f552}, !- Availability Schedule
  {3acaab5f-64d8-4ca0-a8fc-40f445999fd8}, !- Availability Manager List Name
  AutoSize,                               !- Design Supply Air Flow Rate {m3/s}
  ,                                       !- Branch List Name
  ,                                       !- Connector List Name
  {6ba8a7a2-a5d5-47be-aa94-99bdb745fa0e}, !- Supply Side Inlet Node Name
  {2bc85248-fd30-46fc-a171-1786daab6b5d}, !- Demand Side Outlet Node Name
  {b3613e9c-4016-40c3-b3aa-f92974dbfea3}, !- Demand Side Inlet Node A
  {6d2e255f-28f3-48d1-9f35-c2229a03db84}, !- Supply Side Outlet Node A
  ,                                       !- Demand Side Inlet Node B
  ,                                       !- Supply Side Outlet Node B
  ,                                       !- Return Air Bypass Flow Temperature Setpoint Schedule Name
  {d72a7f86-081b-4f1d-9c13-4a0590139fea}, !- Demand Mixer Name
  {80c0ff1e-9afd-474b-8456-d5507c3b140c}, !- Demand Splitter A Name
  ,                                       !- Demand Splitter B Name
  ;                                       !- Supply Splitter Name

OS:Node,
  {463c84c2-2a0c-4edd-bdcc-43ec131f696a}, !- Handle
  Node 1,                                 !- Name
  {6ba8a7a2-a5d5-47be-aa94-99bdb745fa0e}, !- Inlet Port
  {b824ddf3-a7d0-4df3-9bd8-5c9229ba42b8}; !- Outlet Port

OS:Node,
  {51532639-d098-410a-9fe3-d36e7010914d}, !- Handle
  Node 2,                                 !- Name
  {b6688c68-6739-4720-982a-3961d89ca69d}, !- Inlet Port
  {6d2e255f-28f3-48d1-9f35-c2229a03db84}; !- Outlet Port

OS:Connection,
  {6ba8a7a2-a5d5-47be-aa94-99bdb745fa0e}, !- Handle
  {0b0f7b36-6b6f-4028-b225-74832128af32}, !- Name
  {c50e5386-fd31-4561-b925-5f64fe551471}, !- Source Object
  8,                                      !- Outlet Port
  {463c84c2-2a0c-4edd-bdcc-43ec131f696a}, !- Target Object
  2;                                      !- Inlet Port

OS:Connection,
  {6d2e255f-28f3-48d1-9f35-c2229a03db84}, !- Handle
  {53875f65-3444-4a06-8c24-cebea0acbbb5}, !- Name
  {51532639-d098-410a-9fe3-d36e7010914d}, !- Source Object
  3,                                      !- Outlet Port
  {c50e5386-fd31-4561-b925-5f64fe551471}, !- Target Object
  11;                                     !- Inlet Port

OS:Node,
  {a3395167-7b73-4578-832d-d9f830d9c548}, !- Handle
  Node 3,                                 !- Name
  {b3613e9c-4016-40c3-b3aa-f92974dbfea3}, !- Inlet Port
  {2a5772a7-2174-4f33-8299-e4fd754eebaf}; !- Outlet Port

OS:Node,
  {cf569624-464c-4591-b418-898e0aecfe95}, !- Handle
  Node 4,                                 !- Name
  {1ba1bfe2-57f5-4c77-b85a-c60b9bd6261f}, !- Inlet Port
  {2bc85248-fd30-46fc-a171-1786daab6b5d}; !- Outlet Port

OS:Node,
  {1b4571e4-fa61-4faf-8801-502a473a29cb}, !- Handle
  Node 5,                                 !- Name
  {aba43217-802b-4b08-919e-dd2766da3447}, !- Inlet Port
  {74f2edea-85a4-431a-8221-cec4bbc2ac27}; !- Outlet Port

OS:Connection,
  {b3613e9c-4016-40c3-b3aa-f92974dbfea3}, !- Handle
  {7999fe4c-e52b-4878-8372-b6ad01057c48}, !- Name
  {c50e5386-fd31-4561-b925-5f64fe551471}, !- Source Object
  10,                                     !- Outlet Port
  {a3395167-7b73-4578-832d-d9f830d9c548}, !- Target Object
  2;                                      !- Inlet Port

OS:Connection,
  {2bc85248-fd30-46fc-a171-1786daab6b5d}, !- Handle
  {0f52629f-e66a-4d0d-a2a0-7f18e3db247a}, !- Name
  {cf569624-464c-4591-b418-898e0aecfe95}, !- Source Object
  3,                                      !- Outlet Port
  {c50e5386-fd31-4561-b925-5f64fe551471}, !- Target Object
  9;                                      !- Inlet Port

OS:AirLoopHVAC:ZoneSplitter,
  {80c0ff1e-9afd-474b-8456-d5507c3b140c}, !- Handle
  Air Loop HVAC Zone Splitter 1,          !- Name
  {2a5772a7-2174-4f33-8299-e4fd754eebaf}, !- Inlet Node Name
  {d637014f-f7ef-494f-8e4b-a6ad4f123eb7}, !- Outlet Node Name 1
  {2a2cb1d8-46a6-49b3-bd65-b68a387dd56f}; !- Outlet Node Name 2

OS:AirLoopHVAC:ZoneMixer,
  {d72a7f86-081b-4f1d-9c13-4a0590139fea}, !- Handle
  Air Loop HVAC Zone Mixer 1,             !- Name
  {1ba1bfe2-57f5-4c77-b85a-c60b9bd6261f}, !- Outlet Node Name
  {65db5fc0-a2ee-4d78-b92d-59ed8635c0e0}, !- Inlet Node Name 1
  {3232f224-8e8e-4316-acf5-092443904122}; !- Inlet Node Name 2

OS:Connection,
  {2a5772a7-2174-4f33-8299-e4fd754eebaf}, !- Handle
  {eb17a139-26ea-4eb9-8024-09d64e0f6752}, !- Name
  {a3395167-7b73-4578-832d-d9f830d9c548}, !- Source Object
  3,                                      !- Outlet Port
  {80c0ff1e-9afd-474b-8456-d5507c3b140c}, !- Target Object
  2;                                      !- Inlet Port

OS:Connection,
  {1ba1bfe2-57f5-4c77-b85a-c60b9bd6261f}, !- Handle
  {72492e4c-737f-414d-83d7-2dc9a6138c63}, !- Name
  {d72a7f86-081b-4f1d-9c13-4a0590139fea}, !- Source Object
  2,                                      !- Outlet Port
  {cf569624-464c-4591-b418-898e0aecfe95}, !- Target Object
  2;                                      !- Inlet Port

OS:Sizing:System,
  {40e8494e-308d-4847-91b2-1f876af02607}, !- Handle
  {c50e5386-fd31-4561-b925-5f64fe551471}, !- AirLoop Name
  Sensible,                               !- Type of Load to Size On
  Autosize,                               !- Design Outdoor Air Flow Rate {m3/s}
  0.3,                                    !- Minimum System Air Flow Ratio
  7,                                      !- Preheat Design Temperature {C}
  0.008,                                  !- Preheat Design Humidity Ratio {kg-H2O/kg-Air}
  12.8,                                   !- Precool Design Temperature {C}
  0.008,                                  !- Precool Design Humidity Ratio {kg-H2O/kg-Air}
  12.8,                                   !- Central Cooling Design Supply Air Temperature {C}
  16.7,                                   !- Central Heating Design Supply Air Temperature {C}
  NonCoincident,                          !- Sizing Option
  Yes,                                    !- 100% Outdoor Air in Cooling
  Yes,                                    !- 100% Outdoor Air in Heating
  0.0085,                                 !- Central Cooling Design Supply Air Humidity Ratio {kg-H2O/kg-Air}
  0.008,                                  !- Central Heating Design Supply Air Humidity Ratio {kg-H2O/kg-Air}
  DesignDay,                              !- Cooling Design Air Flow Method
  0,                                      !- Cooling Design Air Flow Rate {m3/s}
  DesignDay,                              !- Heating Design Air Flow Method
  0,                                      !- Heating Design Air Flow Rate {m3/s}
  ZoneSum,                                !- System Outdoor Air Method
  1,                                      !- Zone Maximum Outdoor Air Fraction {dimensionless}
  0.0099676501,                           !- Cooling Supply Air Flow Rate Per Floor Area {m3/s-m2}
  1,                                      !- Cooling Fraction of Autosized Cooling Supply Air Flow Rate
  3.9475456e-005,                         !- Cooling Supply Air Flow Rate Per Unit Cooling Capacity {m3/s-W}
  0.0099676501,                           !- Heating Supply Air Flow Rate Per Floor Area {m3/s-m2}
  1,                                      !- Heating Fraction of Autosized Heating Supply Air Flow Rate
  1,                                      !- Heating Fraction of Autosized Cooling Supply Air Flow Rate
  3.1588213e-005,                         !- Heating Supply Air Flow Rate Per Unit Heating Capacity {m3/s-W}
  CoolingDesignCapacity,                  !- Cooling Design Capacity Method
  autosize,                               !- Cooling Design Capacity {W}
  234.7,                                  !- Cooling Design Capacity Per Floor Area {W/m2}
  1,                                      !- Fraction of Autosized Cooling Design Capacity
  HeatingDesignCapacity,                  !- Heating Design Capacity Method
  autosize,                               !- Heating Design Capacity {W}
  157,                                    !- Heating Design Capacity Per Floor Area {W/m2}
  1,                                      !- Fraction of Autosized Heating Design Capacity
  OnOff;                                  !- Central Cooling Capacity Control Method

OS:Schedule:Constant,
  {3a8524e4-3344-475a-a1c5-8c026a58f552}, !- Handle
  Always On Discrete,                     !- Name
  {ed9ca0b3-a520-40ae-9400-72c70b8683e7}, !- Schedule Type Limits Name
  1;                                      !- Value

OS:ScheduleTypeLimits,
  {ed9ca0b3-a520-40ae-9400-72c70b8683e7}, !- Handle
  OnOff,                                  !- Name
  0,                                      !- Lower Limit Value
  1,                                      !- Upper Limit Value
  Discrete,                               !- Numeric Type
  Availability;                           !- Unit Type

OS:AvailabilityManagerAssignmentList,
  {3acaab5f-64d8-4ca0-a8fc-40f445999fd8}, !- Handle
  Air Loop HVAC 1 AvailabilityManagerAssignmentList; !- Name

! TrackingID:#[wpWocg]
OS:Controller:OutdoorAir,
  {d9f598a2-100c-499c-8883-af32ede0e155}, !- Handle
  Controller Outdoor Air 1,               !- Name
  ,                                       !- Relief Air Outlet Node Name
  ,                                       !- Return Air Node Name
  ,                                       !- Mixed Air Node Name
  ,                                       !- Actuator Node Name
  0,                                      !- Minimum Outdoor Air Flow Rate {m3/s}
  Autosize,                               !- Maximum Outdoor Air Flow Rate {m3/s}
  NoEconomizer,                           !- Economizer Control Type
  ModulateFlow,                           !- Economizer Control Action Type
  28,                                     !- Economizer Maximum Limit Dry-Bulb Temperature {C}
  64000,                                  !- Economizer Maximum Limit Enthalpy {J/kg}
  ,                                       !- Economizer Maximum Limit Dewpoint Temperature {C}
  ,                                       !- Electronic Enthalpy Limit Curve Name
  -100,                                   !- Economizer Minimum Limit Dry-Bulb Temperature {C}
  NoLockout,                              !- Lockout Type
  FixedMinimum,                           !- Minimum Limit Type
  ,                                       !- Minimum Outdoor Air Schedule Name
  ,                                       !- Minimum Fraction of Outdoor Air Schedule Name
  ,                                       !- Maximum Fraction of Outdoor Air Schedule Name
  {c8046bf5-dce6-4d09-a298-fb9415cef239}, !- Controller Mechanical Ventilation
  ,                                       !- Time of Day Economizer Control Schedule Name
  No,                                     !- High Humidity Control
  ,                                       !- Humidistat Control Zone Name
  ,                                       !- High Humidity Outdoor Air Flow Ratio
  ,                                       !- Control High Indoor Humidity Based on Outdoor Humidity Ratio
  BypassWhenWithinEconomizerLimits;       !- Heat Recovery Bypass Control Type

OS:Controller:MechanicalVentilation,
  {c8046bf5-dce6-4d09-a298-fb9415cef239}, !- Handle
  Controller Mechanical Ventilation 1,    !- Name
  {3a8524e4-3344-475a-a1c5-8c026a58f552}, !- Availability Schedule
  ,                                       !- Demand Controlled Ventilation
  ZoneSum;                                !- System Outdoor Air Method

! TrackingID:#[OWBUPA]
OS:AirLoopHVAC:OutdoorAirSystem,
  {3b3626b4-822b-4e8b-ab8d-d93ed58b9cf6}, !- Handle
  Air Loop HVAC Outdoor Air System 1,     !- Name
  {d9f598a2-100c-499c-8883-af32ede0e155}, !- Controller Name
  ,                                       !- Outdoor Air Equipment List Name
  ,                                       !- Availability Manager List Name
  {be705577-f0ff-491e-902e-3c6b510c8494}, !- Mixed Air Node Name
  {3a4c5a2b-1b7f-4c45-a2a6-87d0058f633e}, !- Outdoor Air Stream Node Name
  {e5a5e707-61f3-44bd-9f7a-27d386519750}, !- Relief Air Stream Node Name
  {b824ddf3-a7d0-4df3-9bd8-5c9229ba42b8}; !- Return Air Stream Node Name

OS:Node,
  {b8187426-0dbe-47c9-a28d-7c902612bfa0}, !- Handle
  Node 6,                                 !- Name
  ,                                       !- Inlet Port
  {3a4c5a2b-1b7f-4c45-a2a6-87d0058f633e}; !- Outlet Port

OS:Connection,
  {3a4c5a2b-1b7f-4c45-a2a6-87d0058f633e}, !- Handle
  {9974bc18-692e-43f7-9470-b94ce9dd0fa8}, !- Name
  {b8187426-0dbe-47c9-a28d-7c902612bfa0}, !- Source Object
  3,                                      !- Outlet Port
  {3b3626b4-822b-4e8b-ab8d-d93ed58b9cf6}, !- Target Object
  6;                                      !- Inlet Port

OS:Node,
  {062dabfb-42da-4e57-b8e6-1f5a81b1ffd4}, !- Handle
  Node 7,                                 !- Name
  {e5a5e707-61f3-44bd-9f7a-27d386519750}, !- Inlet Port
  ;                                       !- Outlet Port

OS:Connection,
  {e5a5e707-61f3-44bd-9f7a-27d386519750}, !- Handle
  {ed75c3a8-86ed-4e61-a5b6-c7f01ec9d73a}, !- Name
  {3b3626b4-822b-4e8b-ab8d-d93ed58b9cf6}, !- Source Object
  7,                                      !- Outlet Port
  {062dabfb-42da-4e57-b8e6-1f5a81b1ffd4}, !- Target Object
  2;                                      !- Inlet Port

OS:Connection,
  {b824ddf3-a7d0-4df3-9bd8-5c9229ba42b8}, !- Handle
  {0541fff4-fc6c-4dfa-b346-b25d874a0012}, !- Name
  {463c84c2-2a0c-4edd-bdcc-43ec131f696a}, !- Source Object
  3,                                      !- Outlet Port
  {3b3626b4-822b-4e8b-ab8d-d93ed58b9cf6}, !- Target Object
  8;                                      !- Inlet Port

! TrackingID:#[Q5KmRO]
OS:Coil:Cooling:Water,
  {fd29939c-3815-4b25-9d4e-8e509dc50bc4}, !- Handle
  Coil Cooling Water 1,                   !- Name
  {3a8524e4-3344-475a-a1c5-8c026a58f552}, !- Availability Schedule Name
  ,                                       !- Design Water Flow Rate {m3/s}
  ,                                       !- Design Air Flow Rate {m3/s}
  ,                                       !- Design Inlet Water Temperature {C}
  ,                                       !- Design Inlet Air Temperature {C}
  ,                                       !- Design Outlet Air Temperature {C}
  ,                                       !- Design Inlet Air Humidity Ratio {kg-H2O/kg-air}
  ,                                       !- Design Outlet Air Humidity Ratio {kg-H2O/kg-air}
  {d5f5c5c3-f2e2-461a-8d74-5c1851dd032e}, !- Water Inlet Node Name
  {71f9b1ba-abfb-4f28-8003-1a2898a629bb}, !- Water Outlet Node Name
  {78aab8cd-f5ef-45f2-8903-f38c61f09d2d}, !- Air Inlet Node Name
  {4b9677d0-d765-430d-8964-aadf950e21ff}, !- Air Outlet Node Name
  ,                                       !- Type of Analysis
  ;                                       !- Heat Exchanger Configuration

OS:Node,
  {f09fb71e-7f6c-4c2f-828c-44cd3331f2fc}, !- Handle
  Node 8,                                 !- Name
  {be705577-f0ff-491e-902e-3c6b510c8494}, !- Inlet Port
  {78aab8cd-f5ef-45f2-8903-f38c61f09d2d}; !- Outlet Port

OS:Connection,
  {be705577-f0ff-491e-902e-3c6b510c8494}, !- Handle
  {2f351414-42e5-495b-b521-5943f22d0709}, !- Name
  {3b3626b4-822b-4e8b-ab8d-d93ed58b9cf6}, !- Source Object
  5,                                      !- Outlet Port
  {f09fb71e-7f6c-4c2f-828c-44cd3331f2fc}, !- Target Object
  2;                                      !- Inlet Port

OS:Connection,
  {78aab8cd-f5ef-45f2-8903-f38c61f09d2d}, !- Handle
  {203ef649-42aa-480c-a88f-59582bb6b1e1}, !- Name
  {f09fb71e-7f6c-4c2f-828c-44cd3331f2fc}, !- Source Object
  3,                                      !- Outlet Port
  {fd29939c-3815-4b25-9d4e-8e509dc50bc4}, !- Target Object
  12;                                     !- Inlet Port

! TrackingID:#[Sd9DKn]
OS:Coil:Heating:Water,
  {06ff8b6d-8174-4ee8-ac23-e22622e279b2}, !- Handle
  Coil Heating Water 1,                   !- Name
  {3a8524e4-3344-475a-a1c5-8c026a58f552}, !- Availability Schedule Name
  ,                                       !- U-Factor Times Area Value {W/K}
  ,                                       !- Maximum Water Flow Rate {m3/s}
  {c32c48cd-6f16-4b71-91a9-f5928dd0fedc}, !- Water Inlet Node Name
  {8bda0645-7a6a-4efd-85eb-78b02f9e95b3}, !- Water Outlet Node Name
  {2a5c87b5-b4d7-48e4-9f12-b4e80d7a0c6c}, !- Air Inlet Node Name
  {24ae99b3-9fd3-4957-849f-82c4e4013c11}, !- Air Outlet Node Name
  ,                                       !- Performance Input Method
  ,                                       !- Rated Capacity {W}
  ,                                       !- Rated Inlet Water Temperature {C}
  ,                                       !- Rated Inlet Air Temperature {C}
  ,                                       !- Rated Outlet Water Temperature {C}
  ,                                       !- Rated Outlet Air Temperature {C}
  ;                                       !- Rated Ratio for Air and Water Convection

OS:Node,
  {aa332eed-f8c4-40f4-a427-01bc785ecc0c}, !- Handle
  Node 9,                                 !- Name
  {4b9677d0-d765-430d-8964-aadf950e21ff}, !- Inlet Port
  {2a5c87b5-b4d7-48e4-9f12-b4e80d7a0c6c}; !- Outlet Port

OS:Connection,
  {4b9677d0-d765-430d-8964-aadf950e21ff}, !- Handle
  {87d5dbe9-62a6-4f21-8149-cbc22af0c480}, !- Name
  {fd29939c-3815-4b25-9d4e-8e509dc50bc4}, !- Source Object
  13,                                     !- Outlet Port
  {aa332eed-f8c4-40f4-a427-01bc785ecc0c}, !- Target Object
  2;                                      !- Inlet Port

OS:Connection,
  {2a5c87b5-b4d7-48e4-9f12-b4e80d7a0c6c}, !- Handle
  {956aba78-5cb6-434f-8957-6493ad2453fa}, !- Name
  {aa332eed-f8c4-40f4-a427-01bc785ecc0c}, !- Source Object
  3,                                      !- Outlet Port
  {06ff8b6d-8174-4ee8-ac23-e22622e279b2}, !- Target Object
  7;                                      !- Inlet Port

! TrackingID:#[H5k8Rp]
OS:Fan:VariableVolume,
  {0037b52e-3886-4c3d-afd5-dfb8c53f6bde}, !- Handle
  Fan Variable Volume 1,                  !- Name
  {3a8524e4-3344-475a-a1c5-8c026a58f552}, !- Availability Schedule Name
  0.6045,                                 !- Fan Efficiency
  1017.592,                               !- Pressure Rise {Pa}
  Autosize,                               !- Maximum Flow Rate {m3/s}
  FixedFlowRate,                          !- Fan Power Minimum Flow Rate Input Method
  0,                                      !- Fan Power Minimum Flow Fraction
  0,                                      !- Fan Power Minimum Air Flow Rate {m3/s}
  0.93,                                   !- Motor Efficiency
  1,                                      !- Motor In Airstream Fraction
  0.040759894,                            !- Fan Power Coefficient 1
  0.08804497,                             !- Fan Power Coefficient 2
  -0.07292612,                            !- Fan Power Coefficient 3
  0.943739823,                            !- Fan Power Coefficient 4
  0,                                      !- Fan Power Coefficient 5
  {85149717-1ffe-4aa7-a6bc-affb2717aba8}, !- Air Inlet Node Name
  {b6688c68-6739-4720-982a-3961d89ca69d}, !- Air Outlet Node Name
  ;                                       !- End-Use Subcategory

OS:Node,
  {c85cbd5d-3a42-4db0-9b26-afef749bec48}, !- Handle
  Node 10,                                !- Name
  {24ae99b3-9fd3-4957-849f-82c4e4013c11}, !- Inlet Port
  {85149717-1ffe-4aa7-a6bc-affb2717aba8}; !- Outlet Port

OS:Connection,
  {24ae99b3-9fd3-4957-849f-82c4e4013c11}, !- Handle
  {34dee9c2-c3a2-47a1-9bbf-e23b8e274587}, !- Name
  {06ff8b6d-8174-4ee8-ac23-e22622e279b2}, !- Source Object
  8,                                      !- Outlet Port
  {c85cbd5d-3a42-4db0-9b26-afef749bec48}, !- Target Object
  2;                                      !- Inlet Port

OS:Connection,
  {85149717-1ffe-4aa7-a6bc-affb2717aba8}, !- Handle
  {7fbd035b-dc80-48f6-a98d-b9bc164a18f6}, !- Name
  {c85cbd5d-3a42-4db0-9b26-afef749bec48}, !- Source Object
  3,                                      !- Outlet Port
  {0037b52e-3886-4c3d-afd5-dfb8c53f6bde}, !- Target Object
  16;                                     !- Inlet Port

OS:Connection,
  {b6688c68-6739-4720-982a-3961d89ca69d}, !- Handle
  {bd9df4ab-305d-42dd-a00d-502b9d8e5be1}, !- Name
  {0037b52e-3886-4c3d-afd5-dfb8c53f6bde}, !- Source Object
  17,                                     !- Outlet Port
  {51532639-d098-410a-9fe3-d36e7010914d}, !- Target Object
  2;                                      !- Inlet Port

! TrackingID:#[MNgBPT]
OS:ThermalZone,
  {2adc2e9b-6023-48e8-b0a9-29f729d2ba02}, !- Handle
  zone_0,                                 !- Name
  ,                                       !- Multiplier
  ,                                       !- Ceiling Height {m}
  ,                                       !- Volume {m3}
  ,                                       !- Floor Area {m2}
  ,                                       !- Zone Inside Convection Algorithm
  ,                                       !- Zone Outside Convection Algorithm
  ,                                       !- Zone Conditioning Equipment List Name
  {7863dba0-0099-4620-a609-361f750393eb}, !- Zone Air Inlet Port List
  {28d161cf-6e85-440d-acbe-930a0b38494f}, !- Zone Air Exhaust Port List
  {76856b11-e2e8-4525-b615-03e938795094}, !- Zone Air Node Name
  {fbbe3cce-fe7a-4965-bb87-b5ac6b1f82d6}, !- Zone Return Air Node Name
  ,                                       !- Primary Daylighting Control Name
  ,                                       !- Fraction of Zone Controlled by Primary Daylighting Control
  ,                                       !- Secondary Daylighting Control Name
  ,                                       !- Fraction of Zone Controlled by Secondary Daylighting Control
  ,                                       !- Illuminance Map Name
  ,                                       !- Group Rendering Name
  ,                                       !- Thermostat Name
  No;                                     !- Use Ideal Air Loads

OS:Node,
  {17507849-bb27-49d1-8d02-d651203c4dcb}, !- Handle
  Node 11,                                !- Name
  {76856b11-e2e8-4525-b615-03e938795094}, !- Inlet Port
  ;                                       !- Outlet Port

OS:Connection,
  {76856b11-e2e8-4525-b615-03e938795094}, !- Handle
  {57735806-367d-4669-951a-25aacf42d9df}, !- Name
  {2adc2e9b-6023-48e8-b0a9-29f729d2ba02}, !- Source Object
  11,                                     !- Outlet Port
  {17507849-bb27-49d1-8d02-d651203c4dcb}, !- Target Object
  2;                                      !- Inlet Port

OS:PortList,
  {7863dba0-0099-4620-a609-361f750393eb}, !- Handle
  {514a3b6a-6bc6-47ba-b7cd-b68dce9c0688}, !- Name
  {2adc2e9b-6023-48e8-b0a9-29f729d2ba02}, !- HVAC Component
  {74f2edea-85a4-431a-8221-cec4bbc2ac27}; !- Port 1

OS:PortList,
  {28d161cf-6e85-440d-acbe-930a0b38494f}, !- Handle
  {20685dde-2d92-4d0f-b073-7d585fcc769c}, !- Name
  {2adc2e9b-6023-48e8-b0a9-29f729d2ba02}; !- HVAC Component

OS:Sizing:Zone,
  {da01e541-ee5d-485b-abee-0ebd8159d744}, !- Handle
  {2adc2e9b-6023-48e8-b0a9-29f729d2ba02}, !- Zone or ZoneList Name
  SupplyAirTemperature,                   !- Zone Cooling Design Supply Air Temperature Input Method
  14,                                     !- Zone Cooling Design Supply Air Temperature {C}
  11.11,                                  !- Zone Cooling Design Supply Air Temperature Difference {deltaC}
  SupplyAirTemperature,                   !- Zone Heating Design Supply Air Temperature Input Method
  40,                                     !- Zone Heating Design Supply Air Temperature {C}
  11.11,                                  !- Zone Heating Design Supply Air Temperature Difference {deltaC}
  0.0085,                                 !- Zone Cooling Design Supply Air Humidity Ratio {kg-H2O/kg-air}
  0.008,                                  !- Zone Heating Design Supply Air Humidity Ratio {kg-H2O/kg-air}
  ,                                       !- Zone Heating Sizing Factor
  ,                                       !- Zone Cooling Sizing Factor
  DesignDay,                              !- Cooling Design Air Flow Method
  ,                                       !- Cooling Design Air Flow Rate {m3/s}
  ,                                       !- Cooling Minimum Air Flow per Zone Floor Area {m3/s-m2}
  ,                                       !- Cooling Minimum Air Flow {m3/s}
  ,                                       !- Cooling Minimum Air Flow Fraction
  DesignDay,                              !- Heating Design Air Flow Method
  ,                                       !- Heating Design Air Flow Rate {m3/s}
  ,                                       !- Heating Maximum Air Flow per Zone Floor Area {m3/s-m2}
  ,                                       !- Heating Maximum Air Flow {m3/s}
  ,                                       !- Heating Maximum Air Flow Fraction
  ,                                       !- Design Zone Air Distribution Effectiveness in Cooling Mode
  ,                                       !- Design Zone Air Distribution Effectiveness in Heating Mode
  No,                                     !- Account for Dedicated Outdoor Air System
  NeutralSupplyAir,                       !- Dedicated Outdoor Air System Control Strategy
  autosize,                               !- Dedicated Outdoor Air Low Setpoint Temperature for Design {C}
  autosize;                               !- Dedicated Outdoor Air High Setpoint Temperature for Design {C}

OS:ZoneHVAC:EquipmentList,
  {1f0f09bf-8c9d-4cb1-bad5-0ad3bcc2228b}, !- Handle
  Zone HVAC Equipment List 1,             !- Name
  {2adc2e9b-6023-48e8-b0a9-29f729d2ba02}, !- Thermal Zone
  {173ec6ac-f76d-47d1-a428-b19aba7d126d}, !- Zone Equipment 1
  1,                                      !- Zone Equipment Cooling Sequence 1
  1;                                      !- Zone Equipment Heating or No-Load Sequence 1

! TrackingID:#[xNWazD]
OS:Sizing:Zone,
  {507cc700-b0da-4cf0-9c09-8e2e05aead62}, !- Handle
  {2adc2e9b-6023-48e8-b0a9-29f729d2ba02}, !- Zone or ZoneList Name
  SupplyAirTemperature,                   !- Zone Cooling Design Supply Air Temperature Input Method
  14,                                     !- Zone Cooling Design Supply Air Temperature {C}
  11.11,                                  !- Zone Cooling Design Supply Air Temperature Difference {deltaC}
  SupplyAirTemperature,                   !- Zone Heating Design Supply Air Temperature Input Method
  40,                                     !- Zone Heating Design Supply Air Temperature {C}
  11.11,                                  !- Zone Heating Design Supply Air Temperature Difference {deltaC}
  0.0085,                                 !- Zone Cooling Design Supply Air Humidity Ratio {kg-H2O/kg-air}
  0.008,                                  !- Zone Heating Design Supply Air Humidity Ratio {kg-H2O/kg-air}
  ,                                       !- Zone Heating Sizing Factor
  ,                                       !- Zone Cooling Sizing Factor
  DesignDay,                              !- Cooling Design Air Flow Method
  ,                                       !- Cooling Design Air Flow Rate {m3/s}
  ,                                       !- Cooling Minimum Air Flow per Zone Floor Area {m3/s-m2}
  ,                                       !- Cooling Minimum Air Flow {m3/s}
  ,                                       !- Cooling Minimum Air Flow Fraction
  DesignDay,                              !- Heating Design Air Flow Method
  ,                                       !- Heating Design Air Flow Rate {m3/s}
  ,                                       !- Heating Maximum Air Flow per Zone Floor Area {m3/s-m2}
  ,                                       !- Heating Maximum Air Flow {m3/s}
  ,                                       !- Heating Maximum Air Flow Fraction
  ,                                       !- Design Zone Air Distribution Effectiveness in Cooling Mode
  ,                                       !- Design Zone Air Distribution Effectiveness in Heating Mode
  No,                                     !- Account for Dedicated Outdoor Air System
  NeutralSupplyAir,                       !- Dedicated Outdoor Air System Control Strategy
  autosize,                               !- Dedicated Outdoor Air Low Setpoint Temperature for Design {C}
  autosize;                               !- Dedicated Outdoor Air High Setpoint Temperature for Design {C}

OS:Coil:Heating:Water,
  {0b0d50e4-7a8e-4195-a31f-2e243976ca72}, !- Handle
  Coil Heating Water 2,                   !- Name
  {3a8524e4-3344-475a-a1c5-8c026a58f552}, !- Availability Schedule Name
  ,                                       !- U-Factor Times Area Value {W/K}
  ,                                       !- Maximum Water Flow Rate {m3/s}
  ,                                       !- Water Inlet Node Name
  ,                                       !- Water Outlet Node Name
  ,                                       !- Air Inlet Node Name
  ,                                       !- Air Outlet Node Name
  ,                                       !- Performance Input Method
  ,                                       !- Rated Capacity {W}
  ,                                       !- Rated Inlet Water Temperature {C}
  ,                                       !- Rated Inlet Air Temperature {C}
  ,                                       !- Rated Outlet Water Temperature {C}
  ,                                       !- Rated Outlet Air Temperature {C}
  ;                                       !- Rated Ratio for Air and Water Convection

! TrackingID:#[YBbGKL]