
OS:Version,
  {fb1b48b0-bc07-4b12-9789-ba7a28a6e9c9}, !- Handle
  2.4.0;                                  !- Version Identifier

OS:AirLoopHVAC,
  {75f9e42b-4122-420e-a6af-c4ed159b565c}, !- Handle
  Air Loop HVAC 1,                        !- Name
  ,                                       !- Controller List Name
  {50205063-af66-45c8-9573-e302ea458f5d}, !- Availability Schedule
  {a386c537-bb66-4532-a6dc-76ce772d0177}, !- Availability Manager List Name
  AutoSize,                               !- Design Supply Air Flow Rate {m3/s}
  ,                                       !- Branch List Name
  ,                                       !- Connector List Name
  {d749d6aa-913e-4dde-8254-248c6871373f}, !- Supply Side Inlet Node Name
  {09b05cb1-311c-4a5b-bf74-b5e3aab9c2de}, !- Demand Side Outlet Node Name
  {8c6a9d94-024d-4504-8854-70e1b46df91f}, !- Demand Side Inlet Node A
  {98bb0231-284f-40f7-a292-e2a8fa496b04}, !- Supply Side Outlet Node A
  ,                                       !- Demand Side Inlet Node B
  ,                                       !- Supply Side Outlet Node B
  ,                                       !- Return Air Bypass Flow Temperature Setpoint Schedule Name
  {ab020cd6-ad78-4e7a-8b3b-f013406210f0}, !- Demand Mixer Name
  {a36cc993-9377-4ce1-bd36-11fc7f6123e5}, !- Demand Splitter A Name
  ,                                       !- Demand Splitter B Name
  ;                                       !- Supply Splitter Name

OS:Node,
  {109c90e6-5d51-46cf-a557-152bcbdba406}, !- Handle
  Node 1,                                 !- Name
  {d749d6aa-913e-4dde-8254-248c6871373f}, !- Inlet Port
  {d2c2c7c3-ad78-45f0-a1a1-c8339823f023}; !- Outlet Port

OS:Node,
  {7549ca53-cb9d-4771-bbb9-aabb51665a72}, !- Handle
  Node 2,                                 !- Name
  {aa029cf3-b8c2-426d-8ceb-3711f907cc0a}, !- Inlet Port
  {98bb0231-284f-40f7-a292-e2a8fa496b04}; !- Outlet Port

OS:Connection,
  {d749d6aa-913e-4dde-8254-248c6871373f}, !- Handle
  {25412162-80fc-4edd-b415-5d758d9231e6}, !- Name
  {75f9e42b-4122-420e-a6af-c4ed159b565c}, !- Source Object
  8,                                      !- Outlet Port
  {109c90e6-5d51-46cf-a557-152bcbdba406}, !- Target Object
  2;                                      !- Inlet Port

OS:Connection,
  {98bb0231-284f-40f7-a292-e2a8fa496b04}, !- Handle
  {23305a99-0e92-47ea-80bc-eb4e32854e91}, !- Name
  {7549ca53-cb9d-4771-bbb9-aabb51665a72}, !- Source Object
  3,                                      !- Outlet Port
  {75f9e42b-4122-420e-a6af-c4ed159b565c}, !- Target Object
  11;                                     !- Inlet Port

OS:Node,
  {fd3b269f-60de-4d62-ab0d-e15bac6d1d75}, !- Handle
  Node 3,                                 !- Name
  {8c6a9d94-024d-4504-8854-70e1b46df91f}, !- Inlet Port
  {728368f1-f521-43f8-9155-8a8b6fc274d3}; !- Outlet Port

OS:Node,
  {ae08cde1-3766-4caa-bf16-4b05d1b61bf4}, !- Handle
  Node 4,                                 !- Name
  {0b1cc474-ba55-4232-b78b-45b467dd4586}, !- Inlet Port
  {09b05cb1-311c-4a5b-bf74-b5e3aab9c2de}; !- Outlet Port

OS:Node,
  {f3057194-92dd-4a46-ac57-0d90b2b5d915}, !- Handle
  Node 5,                                 !- Name
  {e738f16d-7dd3-40b2-84cc-06ec245ceed3}, !- Inlet Port
  {d39d0283-6824-49fb-b16f-b87761cc70be}; !- Outlet Port

OS:Connection,
  {8c6a9d94-024d-4504-8854-70e1b46df91f}, !- Handle
  {8d1d0067-7384-4096-a1cd-268094bfdba9}, !- Name
  {75f9e42b-4122-420e-a6af-c4ed159b565c}, !- Source Object
  10,                                     !- Outlet Port
  {fd3b269f-60de-4d62-ab0d-e15bac6d1d75}, !- Target Object
  2;                                      !- Inlet Port

OS:Connection,
  {09b05cb1-311c-4a5b-bf74-b5e3aab9c2de}, !- Handle
  {2f49075f-f949-4636-84ea-62094b2771d0}, !- Name
  {ae08cde1-3766-4caa-bf16-4b05d1b61bf4}, !- Source Object
  3,                                      !- Outlet Port
  {75f9e42b-4122-420e-a6af-c4ed159b565c}, !- Target Object
  9;                                      !- Inlet Port

OS:AirLoopHVAC:ZoneSplitter,
  {a36cc993-9377-4ce1-bd36-11fc7f6123e5}, !- Handle
  Air Loop HVAC Zone Splitter 1,          !- Name
  {728368f1-f521-43f8-9155-8a8b6fc274d3}, !- Inlet Node Name
  {7c8a184c-dcc5-4669-b431-a36e82286f50}; !- Outlet Node Name 1

OS:AirLoopHVAC:ZoneMixer,
  {ab020cd6-ad78-4e7a-8b3b-f013406210f0}, !- Handle
  Air Loop HVAC Zone Mixer 1,             !- Name
  {0b1cc474-ba55-4232-b78b-45b467dd4586}, !- Outlet Node Name
  {05c953c7-3feb-445a-af55-0cf2bf1b10ab}; !- Inlet Node Name 1

OS:Connection,
  {728368f1-f521-43f8-9155-8a8b6fc274d3}, !- Handle
  {99ed610e-12de-49e8-8171-20656d0e7af5}, !- Name
  {fd3b269f-60de-4d62-ab0d-e15bac6d1d75}, !- Source Object
  3,                                      !- Outlet Port
  {a36cc993-9377-4ce1-bd36-11fc7f6123e5}, !- Target Object
  2;                                      !- Inlet Port

OS:Connection,
  {0b1cc474-ba55-4232-b78b-45b467dd4586}, !- Handle
  {e0fd3a36-913e-44a7-98ef-290d37b01780}, !- Name
  {ab020cd6-ad78-4e7a-8b3b-f013406210f0}, !- Source Object
  2,                                      !- Outlet Port
  {ae08cde1-3766-4caa-bf16-4b05d1b61bf4}, !- Target Object
  2;                                      !- Inlet Port

OS:Sizing:System,
  {3b478b77-8326-42aa-b3cb-4ec6c4f2ef2d}, !- Handle
  {75f9e42b-4122-420e-a6af-c4ed159b565c}, !- AirLoop Name
  Sensible,                               !- Type of Load to Size On
  Autosize,                               !- Design Outdoor Air Flow Rate {m3/s}
  0.3,                                    !- Minimum System Air Flow Ratio
  7,                                      !- Preheat Design Temperature {C}
  0.008,                                  !- Preheat Design Humidity Ratio {kg-H2O/kg-Air}
  12.8,                                   !- Precool Design Temperature {C}
  0.008,                                  !- Precool Design Humidity Ratio {kg-H2O/kg-Air}
  12.8,                                   !- Central Cooling Design Supply Air Temperature {C}
  16.7,                                   !- Central Heating Design Supply Air Temperature {C}
  NonCoincident,                          !- Sizing Option
  Yes,                                    !- 100% Outdoor Air in Cooling
  Yes,                                    !- 100% Outdoor Air in Heating
  0.0085,                                 !- Central Cooling Design Supply Air Humidity Ratio {kg-H2O/kg-Air}
  0.008,                                  !- Central Heating Design Supply Air Humidity Ratio {kg-H2O/kg-Air}
  DesignDay,                              !- Cooling Design Air Flow Method
  0,                                      !- Cooling Design Air Flow Rate {m3/s}
  DesignDay,                              !- Heating Design Air Flow Method
  0,                                      !- Heating Design Air Flow Rate {m3/s}
  ZoneSum,                                !- System Outdoor Air Method
  1,                                      !- Zone Maximum Outdoor Air Fraction {dimensionless}
  0.0099676501,                           !- Cooling Supply Air Flow Rate Per Floor Area {m3/s-m2}
  1,                                      !- Cooling Fraction of Autosized Cooling Supply Air Flow Rate
  3.9475456e-005,                         !- Cooling Supply Air Flow Rate Per Unit Cooling Capacity {m3/s-W}
  0.0099676501,                           !- Heating Supply Air Flow Rate Per Floor Area {m3/s-m2}
  1,                                      !- Heating Fraction of Autosized Heating Supply Air Flow Rate
  1,                                      !- Heating Fraction of Autosized Cooling Supply Air Flow Rate
  3.1588213e-005,                         !- Heating Supply Air Flow Rate Per Unit Heating Capacity {m3/s-W}
  CoolingDesignCapacity,                  !- Cooling Design Capacity Method
  autosize,                               !- Cooling Design Capacity {W}
  234.7,                                  !- Cooling Design Capacity Per Floor Area {W/m2}
  1,                                      !- Fraction of Autosized Cooling Design Capacity
  HeatingDesignCapacity,                  !- Heating Design Capacity Method
  autosize,                               !- Heating Design Capacity {W}
  157,                                    !- Heating Design Capacity Per Floor Area {W/m2}
  1,                                      !- Fraction of Autosized Heating Design Capacity
  OnOff;                                  !- Central Cooling Capacity Control Method

OS:Schedule:Constant,
  {50205063-af66-45c8-9573-e302ea458f5d}, !- Handle
  Always On Discrete,                     !- Name
  {c6ecb29c-bb28-4df0-81d9-40bfb4169c77}, !- Schedule Type Limits Name
  1;                                      !- Value

OS:ScheduleTypeLimits,
  {c6ecb29c-bb28-4df0-81d9-40bfb4169c77}, !- Handle
  OnOff,                                  !- Name
  0,                                      !- Lower Limit Value
  1,                                      !- Upper Limit Value
  Discrete,                               !- Numeric Type
  Availability;                           !- Unit Type

OS:AvailabilityManagerAssignmentList,
  {a386c537-bb66-4532-a6dc-76ce772d0177}, !- Handle
  Air Loop HVAC 1 AvailabilityManagerAssignmentList; !- Name

! TrackingID:#[HORpWT]
OS:Coil:Heating:Water,
  {3efaa5ac-1c6b-49d6-a0f3-adad114f8987}, !- Handle
  Coil Heating Water 1,                   !- Name
  {50205063-af66-45c8-9573-e302ea458f5d}, !- Availability Schedule Name
  ,                                       !- U-Factor Times Area Value {W/K}
  ,                                       !- Maximum Water Flow Rate {m3/s}
  {bab74589-8d11-48a2-b58b-7c762f216f8f}, !- Water Inlet Node Name
  {6888cbd7-47ea-415d-8ba3-03897e905e95}, !- Water Outlet Node Name
  {d2c2c7c3-ad78-45f0-a1a1-c8339823f023}, !- Air Inlet Node Name
  {d7bce8fb-6212-46ce-b974-e70c708f79e1}, !- Air Outlet Node Name
  ,                                       !- Performance Input Method
  ,                                       !- Rated Capacity {W}
  ,                                       !- Rated Inlet Water Temperature {C}
  ,                                       !- Rated Inlet Air Temperature {C}
  ,                                       !- Rated Outlet Water Temperature {C}
  ,                                       !- Rated Outlet Air Temperature {C}
  ;                                       !- Rated Ratio for Air and Water Convection

OS:Connection,
  {d2c2c7c3-ad78-45f0-a1a1-c8339823f023}, !- Handle
  {dc173cdd-fc7c-4db0-8963-ed14ca6af2f7}, !- Name
  {109c90e6-5d51-46cf-a557-152bcbdba406}, !- Source Object
  3,                                      !- Outlet Port
  {3efaa5ac-1c6b-49d6-a0f3-adad114f8987}, !- Target Object
  7;                                      !- Inlet Port

! TrackingID:#[ZXUZ2g]
OS:Fan:ConstantVolume,
  {65152e94-9b48-4aa3-a407-661d66a6e772}, !- Handle
  Fan Constant Volume 1,                  !- Name
  {50205063-af66-45c8-9573-e302ea458f5d}, !- Availability Schedule Name
  ,                                       !- Fan Efficiency
  ,                                       !- Pressure Rise {Pa}
  AutoSize,                               !- Maximum Flow Rate {m3/s}
  ,                                       !- Motor Efficiency
  ,                                       !- Motor In Airstream Fraction
  {28998be2-8921-442a-b141-17ef39eb05b8}, !- Air Inlet Node Name
  {aa029cf3-b8c2-426d-8ceb-3711f907cc0a}, !- Air Outlet Node Name
  ;                                       !- End-Use Subcategory

OS:Node,
  {18e97172-abee-403d-a9ea-c1cb4ce93386}, !- Handle
  Node 6,                                 !- Name
  {d7bce8fb-6212-46ce-b974-e70c708f79e1}, !- Inlet Port
  {28998be2-8921-442a-b141-17ef39eb05b8}; !- Outlet Port

OS:Connection,
  {d7bce8fb-6212-46ce-b974-e70c708f79e1}, !- Handle
  {3a385d90-8506-4b25-884d-6678ce0cafb8}, !- Name
  {3efaa5ac-1c6b-49d6-a0f3-adad114f8987}, !- Source Object
  8,                                      !- Outlet Port
  {18e97172-abee-403d-a9ea-c1cb4ce93386}, !- Target Object
  2;                                      !- Inlet Port

OS:Connection,
  {28998be2-8921-442a-b141-17ef39eb05b8}, !- Handle
  {db78ad7b-c5a0-4b84-a390-b81f77b7406e}, !- Name
  {18e97172-abee-403d-a9ea-c1cb4ce93386}, !- Source Object
  3,                                      !- Outlet Port
  {65152e94-9b48-4aa3-a407-661d66a6e772}, !- Target Object
  8;                                      !- Inlet Port

OS:Connection,
  {aa029cf3-b8c2-426d-8ceb-3711f907cc0a}, !- Handle
  {5ff438b0-fc4e-4f76-8b47-0bcede10ea93}, !- Name
  {65152e94-9b48-4aa3-a407-661d66a6e772}, !- Source Object
  9,                                      !- Outlet Port
  {7549ca53-cb9d-4771-bbb9-aabb51665a72}, !- Target Object
  2;                                      !- Inlet Port

! TrackingID:#[eQmjlj]
OS:ThermalZone,
  {cf97c1f4-022f-4c2f-8ae4-3b8701f10b82}, !- Handle
  Thermal Zone 1,                         !- Name
  ,                                       !- Multiplier
  ,                                       !- Ceiling Height {m}
  ,                                       !- Volume {m3}
  ,                                       !- Floor Area {m2}
  ,                                       !- Zone Inside Convection Algorithm
  ,                                       !- Zone Outside Convection Algorithm
  ,                                       !- Zone Conditioning Equipment List Name
  {57184297-5c11-42f5-86ff-f41b41f2b73c}, !- Zone Air Inlet Port List
  {7333c23a-67d9-4d2b-a06c-04fec11ff2d5}, !- Zone Air Exhaust Port List
  {49e55c2c-ecb3-45e0-88aa-59ca02d82cd3}, !- Zone Air Node Name
  {225b0f14-fe6d-4e98-9d6a-70089f9b7842}, !- Zone Return Air Node Name
  ,                                       !- Primary Daylighting Control Name
  ,                                       !- Fraction of Zone Controlled by Primary Daylighting Control
  ,                                       !- Secondary Daylighting Control Name
  ,                                       !- Fraction of Zone Controlled by Secondary Daylighting Control
  ,                                       !- Illuminance Map Name
  ,                                       !- Group Rendering Name
  ,                                       !- Thermostat Name
  No;                                     !- Use Ideal Air Loads

OS:Node,
  {f498497a-1a1b-4895-9caf-0c5825bbfe2f}, !- Handle
  Node 7,                                 !- Name
  {49e55c2c-ecb3-45e0-88aa-59ca02d82cd3}, !- Inlet Port
  ;                                       !- Outlet Port

OS:Connection,
  {49e55c2c-ecb3-45e0-88aa-59ca02d82cd3}, !- Handle
  {3cb6ec61-b1f0-41ef-8439-1e3ec54a9631}, !- Name
  {cf97c1f4-022f-4c2f-8ae4-3b8701f10b82}, !- Source Object
  11,                                     !- Outlet Port
  {f498497a-1a1b-4895-9caf-0c5825bbfe2f}, !- Target Object
  2;                                      !- Inlet Port

OS:PortList,
  {57184297-5c11-42f5-86ff-f41b41f2b73c}, !- Handle
  {c8790f10-463d-43c3-b8da-4a530b61f63c}, !- Name
  {cf97c1f4-022f-4c2f-8ae4-3b8701f10b82}, !- HVAC Component
  {d39d0283-6824-49fb-b16f-b87761cc70be}; !- Port 1

OS:PortList,
  {7333c23a-67d9-4d2b-a06c-04fec11ff2d5}, !- Handle
  {d8b43b70-9f0a-4aa3-8f44-bfd9be1f42d4}, !- Name
  {cf97c1f4-022f-4c2f-8ae4-3b8701f10b82}; !- HVAC Component

OS:Sizing:Zone,
  {c14d64e1-ba68-4eb9-8f64-e77caca1bf3b}, !- Handle
  {cf97c1f4-022f-4c2f-8ae4-3b8701f10b82}, !- Zone or ZoneList Name
  SupplyAirTemperature,                   !- Zone Cooling Design Supply Air Temperature Input Method
  14,                                     !- Zone Cooling Design Supply Air Temperature {C}
  11.11,                                  !- Zone Cooling Design Supply Air Temperature Difference {deltaC}
  SupplyAirTemperature,                   !- Zone Heating Design Supply Air Temperature Input Method
  40,                                     !- Zone Heating Design Supply Air Temperature {C}
  11.11,                                  !- Zone Heating Design Supply Air Temperature Difference {deltaC}
  0.0085,                                 !- Zone Cooling Design Supply Air Humidity Ratio {kg-H2O/kg-air}
  0.008,                                  !- Zone Heating Design Supply Air Humidity Ratio {kg-H2O/kg-air}
  ,                                       !- Zone Heating Sizing Factor
  ,                                       !- Zone Cooling Sizing Factor
  DesignDay,                              !- Cooling Design Air Flow Method
  ,                                       !- Cooling Design Air Flow Rate {m3/s}
  ,                                       !- Cooling Minimum Air Flow per Zone Floor Area {m3/s-m2}
  ,                                       !- Cooling Minimum Air Flow {m3/s}
  ,                                       !- Cooling Minimum Air Flow Fraction
  DesignDay,                              !- Heating Design Air Flow Method
  ,                                       !- Heating Design Air Flow Rate {m3/s}
  ,                                       !- Heating Maximum Air Flow per Zone Floor Area {m3/s-m2}
  ,                                       !- Heating Maximum Air Flow {m3/s}
  ,                                       !- Heating Maximum Air Flow Fraction
  ,                                       !- Design Zone Air Distribution Effectiveness in Cooling Mode
  ,                                       !- Design Zone Air Distribution Effectiveness in Heating Mode
  No,                                     !- Account for Dedicated Outdoor Air System
  NeutralSupplyAir,                       !- Dedicated Outdoor Air System Control Strategy
  autosize,                               !- Dedicated Outdoor Air Low Setpoint Temperature for Design {C}
  autosize;                               !- Dedicated Outdoor Air High Setpoint Temperature for Design {C}

OS:ZoneHVAC:EquipmentList,
  {c2d99c7d-5601-4706-af41-d23f0726fb93}, !- Handle
  Zone HVAC Equipment List 1,             !- Name
  {cf97c1f4-022f-4c2f-8ae4-3b8701f10b82}, !- Thermal Zone
  {6cb0a7bf-7827-439c-a95b-545bba4cfd84}, !- Zone Equipment 1
  1,                                      !- Zone Equipment Cooling Sequence 1
  1,                                      !- Zone Equipment Heating or No-Load Sequence 1
  {34d54736-003d-4a61-9221-95a704d82877}, !- Zone Equipment 2
  2,                                      !- Zone Equipment Cooling Sequence 2
  2;                                      !- Zone Equipment Heating or No-Load Sequence 2

! TrackingID:#[cR3Jvh]
OS:Sizing:Zone,
  {61d26ab4-4f4f-4c35-b48a-8219cd6a63c7}, !- Handle
  {cf97c1f4-022f-4c2f-8ae4-3b8701f10b82}, !- Zone or ZoneList Name
  SupplyAirTemperature,                   !- Zone Cooling Design Supply Air Temperature Input Method
  14,                                     !- Zone Cooling Design Supply Air Temperature {C}
  11.11,                                  !- Zone Cooling Design Supply Air Temperature Difference {deltaC}
  SupplyAirTemperature,                   !- Zone Heating Design Supply Air Temperature Input Method
  40,                                     !- Zone Heating Design Supply Air Temperature {C}
  11.11,                                  !- Zone Heating Design Supply Air Temperature Difference {deltaC}
  0.0085,                                 !- Zone Cooling Design Supply Air Humidity Ratio {kg-H2O/kg-air}
  0.008,                                  !- Zone Heating Design Supply Air Humidity Ratio {kg-H2O/kg-air}
  ,                                       !- Zone Heating Sizing Factor
  ,                                       !- Zone Cooling Sizing Factor
  DesignDay,                              !- Cooling Design Air Flow Method
  ,                                       !- Cooling Design Air Flow Rate {m3/s}
  ,                                       !- Cooling Minimum Air Flow per Zone Floor Area {m3/s-m2}
  ,                                       !- Cooling Minimum Air Flow {m3/s}
  ,                                       !- Cooling Minimum Air Flow Fraction
  DesignDay,                              !- Heating Design Air Flow Method
  ,                                       !- Heating Design Air Flow Rate {m3/s}
  ,                                       !- Heating Maximum Air Flow per Zone Floor Area {m3/s-m2}
  ,                                       !- Heating Maximum Air Flow {m3/s}
  ,                                       !- Heating Maximum Air Flow Fraction
  ,                                       !- Design Zone Air Distribution Effectiveness in Cooling Mode
  ,                                       !- Design Zone Air Distribution Effectiveness in Heating Mode
  No,                                     !- Account for Dedicated Outdoor Air System
  NeutralSupplyAir,                       !- Dedicated Outdoor Air System Control Strategy
  autosize,                               !- Dedicated Outdoor Air Low Setpoint Temperature for Design {C}
  autosize;                               !- Dedicated Outdoor Air High Setpoint Temperature for Design {C}

OS:Coil:Heating:Water,
  {24cc3fed-8388-4ce7-a62c-bfff0541781b}, !- Handle
  Coil Heating Water 2,                   !- Name
  {50205063-af66-45c8-9573-e302ea458f5d}, !- Availability Schedule Name
  ,                                       !- U-Factor Times Area Value {W/K}
  ,                                       !- Maximum Water Flow Rate {m3/s}
  ,                                       !- Water Inlet Node Name
  ,                                       !- Water Outlet Node Name
  ,                                       !- Air Inlet Node Name
  ,                                       !- Air Outlet Node Name
  ,                                       !- Performance Input Method
  ,                                       !- Rated Capacity {W}
  ,                                       !- Rated Inlet Water Temperature {C}
  ,                                       !- Rated Inlet Air Temperature {C}
  ,                                       !- Rated Outlet Water Temperature {C}
  ,                                       !- Rated Outlet Air Temperature {C}
  ;                                       !- Rated Ratio for Air and Water Convection

! TrackingID:#[Xnb7cy]
OS:AirTerminal:SingleDuct:VAV:Reheat,
  {6cb0a7bf-7827-439c-a95b-545bba4cfd84}, !- Handle
  Air Terminal Single Duct VAV Reheat 1,  !- Name
  {50205063-af66-45c8-9573-e302ea458f5d}, !- Availability Schedule Name
  ,                                       !- Air Inlet Node Name
  AutoSize,                               !- Maximum Air Flow Rate {m3/s}
  Constant,                               !- Zone Minimum Air Flow Input Method
  0.3,                                    !- Constant Minimum Air Flow Fraction
  0,                                      !- Fixed Minimum Air Flow Rate {m3/s}
  ,                                       !- Minimum Air Flow Fraction Schedule Name
  {11e3c632-0fee-4616-9f7d-dc0eda2ded3f}, !- Reheat Coil Name
  AutoSize,                               !- Maximum Hot Water or Steam Flow Rate {m3/s}
  0,                                      !- Minimum Hot Water or Steam Flow Rate {m3/s}
  ,                                       !- Air Outlet Node Name
  0.001,                                  !- Convergence Tolerance
  Normal,                                 !- Damper Heating Action
  AutoSize,                               !- Maximum Flow per Zone Floor Area During Reheat {m3/s-m2}
  AutoSize,                               !- Maximum Flow Fraction During Reheat
  35,                                     !- Maximum Reheat Air Temperature {C}
  No;                                     !- Control For Outdoor Air

! TrackingID:#[PvZSRS]
OS:Coil:Heating:Water,
  {11e3c632-0fee-4616-9f7d-dc0eda2ded3f}, !- Handle
  Coil Heating Water 3,                   !- Name
  {50205063-af66-45c8-9573-e302ea458f5d}, !- Availability Schedule Name
  ,                                       !- U-Factor Times Area Value {W/K}
  ,                                       !- Maximum Water Flow Rate {m3/s}
  ,                                       !- Water Inlet Node Name
  ,                                       !- Water Outlet Node Name
  ,                                       !- Air Inlet Node Name
  ,                                       !- Air Outlet Node Name
  ,                                       !- Performance Input Method
  ,                                       !- Rated Capacity {W}
  ,                                       !- Rated Inlet Water Temperature {C}
  ,                                       !- Rated Inlet Air Temperature {C}
  ,                                       !- Rated Outlet Water Temperature {C}
  ,                                       !- Rated Outlet Air Temperature {C}
  ;                                       !- Rated Ratio for Air and Water Convection

OS:Coil:Heating:Water,
  {fc857813-7f89-4d08-95ce-d82f2f615535}, !- Handle
  Coil Heating Water 4,                   !- Name
  {50205063-af66-45c8-9573-e302ea458f5d}, !- Availability Schedule Name
  ,                                       !- U-Factor Times Area Value {W/K}
  ,                                       !- Maximum Water Flow Rate {m3/s}
  ,                                       !- Water Inlet Node Name
  ,                                       !- Water Outlet Node Name
  ,                                       !- Air Inlet Node Name
  ,                                       !- Air Outlet Node Name
  ,                                       !- Performance Input Method
  ,                                       !- Rated Capacity {W}
  ,                                       !- Rated Inlet Water Temperature {C}
  ,                                       !- Rated Inlet Air Temperature {C}
  ,                                       !- Rated Outlet Water Temperature {C}
  ,                                       !- Rated Outlet Air Temperature {C}
  ;                                       !- Rated Ratio for Air and Water Convection

! TrackingID:#[Xnb7cy]
OS:AirTerminal:SingleDuct:VAV:Reheat,
  {34d54736-003d-4a61-9221-95a704d82877}, !- Handle
  Air Terminal Single Duct VAV Reheat 2,  !- Name
  {50205063-af66-45c8-9573-e302ea458f5d}, !- Availability Schedule Name
  {6e76e024-6bd7-4312-9757-7eaa17f779aa}, !- Air Inlet Node Name
  AutoSize,                               !- Maximum Air Flow Rate {m3/s}
  Constant,                               !- Zone Minimum Air Flow Input Method
  0.3,                                    !- Constant Minimum Air Flow Fraction
  0,                                      !- Fixed Minimum Air Flow Rate {m3/s}
  ,                                       !- Minimum Air Flow Fraction Schedule Name
  {11e3c632-0fee-4616-9f7d-dc0eda2ded3f}, !- Reheat Coil Name
  AutoSize,                               !- Maximum Hot Water or Steam Flow Rate {m3/s}
  0,                                      !- Minimum Hot Water or Steam Flow Rate {m3/s}
  {e738f16d-7dd3-40b2-84cc-06ec245ceed3}, !- Air Outlet Node Name
  0.001,                                  !- Convergence Tolerance
  Normal,                                 !- Damper Heating Action
  AutoSize,                               !- Maximum Flow per Zone Floor Area During Reheat {m3/s-m2}
  AutoSize,                               !- Maximum Flow Fraction During Reheat
  35,                                     !- Maximum Reheat Air Temperature {C}
  No;                                     !- Control For Outdoor Air

OS:Node,
  {92e90261-ee0d-4a68-a70e-021990ab326e}, !- Handle
  Node 8,                                 !- Name
  {225b0f14-fe6d-4e98-9d6a-70089f9b7842}, !- Inlet Port
  {05c953c7-3feb-445a-af55-0cf2bf1b10ab}; !- Outlet Port

OS:Connection,
  {d39d0283-6824-49fb-b16f-b87761cc70be}, !- Handle
  {0e05059c-20fd-43d3-8cd4-471dd09bae31}, !- Name
  {f3057194-92dd-4a46-ac57-0d90b2b5d915}, !- Source Object
  3,                                      !- Outlet Port
  {57184297-5c11-42f5-86ff-f41b41f2b73c}, !- Target Object
  3;                                      !- Inlet Port

OS:Connection,
  {225b0f14-fe6d-4e98-9d6a-70089f9b7842}, !- Handle
  {a78726f0-9012-426f-b76f-43f8bf93e32e}, !- Name
  {cf97c1f4-022f-4c2f-8ae4-3b8701f10b82}, !- Source Object
  12,                                     !- Outlet Port
  {92e90261-ee0d-4a68-a70e-021990ab326e}, !- Target Object
  2;                                      !- Inlet Port

OS:Connection,
  {05c953c7-3feb-445a-af55-0cf2bf1b10ab}, !- Handle
  {ca76f6ef-5e07-4d2d-934b-638cca04d992}, !- Name
  {92e90261-ee0d-4a68-a70e-021990ab326e}, !- Source Object
  3,                                      !- Outlet Port
  {ab020cd6-ad78-4e7a-8b3b-f013406210f0}, !- Target Object
  3;                                      !- Inlet Port

OS:Node,
  {74e0e59c-0c21-4ee5-8884-1b7e77c0a42c}, !- Handle
  Node 9,                                 !- Name
  {7c8a184c-dcc5-4669-b431-a36e82286f50}, !- Inlet Port
  {6e76e024-6bd7-4312-9757-7eaa17f779aa}; !- Outlet Port

OS:Connection,
  {7c8a184c-dcc5-4669-b431-a36e82286f50}, !- Handle
  {7467e106-6961-4980-8a51-c9318a8d1f3c}, !- Name
  {a36cc993-9377-4ce1-bd36-11fc7f6123e5}, !- Source Object
  3,                                      !- Outlet Port
  {74e0e59c-0c21-4ee5-8884-1b7e77c0a42c}, !- Target Object
  2;                                      !- Inlet Port

OS:Connection,
  {6e76e024-6bd7-4312-9757-7eaa17f779aa}, !- Handle
  {eda5e209-317f-48d0-bb5f-d4ef81afca8f}, !- Name
  {74e0e59c-0c21-4ee5-8884-1b7e77c0a42c}, !- Source Object
  3,                                      !- Outlet Port
  {34d54736-003d-4a61-9221-95a704d82877}, !- Target Object
  3;                                      !- Inlet Port

OS:Connection,
  {e738f16d-7dd3-40b2-84cc-06ec245ceed3}, !- Handle
  {fa784141-48b0-4fc5-af4f-f87189d79768}, !- Name
  {34d54736-003d-4a61-9221-95a704d82877}, !- Source Object
  12,                                     !- Outlet Port
  {f3057194-92dd-4a46-ac57-0d90b2b5d915}, !- Target Object
  2;                                      !- Inlet Port

! TrackingID:#[71KOkH]
OS:PlantLoop,