
OS:Version,
  {3f9973d1-b001-4fd4-9566-7d21d9ebe958}, !- Handle
  2.4.0;                                  !- Version Identifier

! TrackingID:#[Qt5Do2]
OS:AirLoopHVAC,
  {49d8e210-b646-4678-8df5-729e1d726d2f}, !- Handle
  Air Loop HVAC 1,                        !- Name
  ,                                       !- Controller List Name
  {9d861cc2-f909-43a4-a2f8-3b78015d4ffe}, !- Availability Schedule
  {dd3fddec-ff24-488a-89a5-cced5e889d04}, !- Availability Manager List Name
  AutoSize,                               !- Design Supply Air Flow Rate {m3/s}
  ,                                       !- Branch List Name
  ,                                       !- Connector List Name
  {68f92f82-8bfc-4371-8562-dbd1797230b0}, !- Supply Side Inlet Node Name
  {e6459f23-7305-4332-acb7-690915b30588}, !- Demand Side Outlet Node Name
  {27cd41b9-27c5-4d78-8257-14df05a5fc32}, !- Demand Side Inlet Node A
  {4963b4d5-d3c2-4469-8413-ecd7b61ae4cb}, !- Supply Side Outlet Node A
  ,                                       !- Demand Side Inlet Node B
  ,                                       !- Supply Side Outlet Node B
  ,                                       !- Return Air Bypass Flow Temperature Setpoint Schedule Name
  {7d5c0a28-5d4b-45f5-98fe-edf4afdd84a9}, !- Demand Mixer Name
  {73a64028-3795-4639-b3f3-189b6af595a7}, !- Demand Splitter A Name
  ,                                       !- Demand Splitter B Name
  ;                                       !- Supply Splitter Name

OS:Node,
  {e1ad3420-ebe8-4728-ae9a-fb07d7a65567}, !- Handle
  Node 1,                                 !- Name
  {68f92f82-8bfc-4371-8562-dbd1797230b0}, !- Inlet Port
  {00095c4b-d0f8-4b2a-ab9c-4ab85289e414}; !- Outlet Port

OS:Node,
  {50cb3eb5-4e9c-475e-b776-82fc12bdc674}, !- Handle
  Node 2,                                 !- Name
  {fcb40c54-c013-4bea-877a-3b6fff83628a}, !- Inlet Port
  {4963b4d5-d3c2-4469-8413-ecd7b61ae4cb}; !- Outlet Port

OS:Connection,
  {68f92f82-8bfc-4371-8562-dbd1797230b0}, !- Handle
  {7e6630d1-74df-409e-b922-deb22a3244f2}, !- Name
  {49d8e210-b646-4678-8df5-729e1d726d2f}, !- Source Object
  8,                                      !- Outlet Port
  {e1ad3420-ebe8-4728-ae9a-fb07d7a65567}, !- Target Object
  2;                                      !- Inlet Port

OS:Connection,
  {4963b4d5-d3c2-4469-8413-ecd7b61ae4cb}, !- Handle
  {784b9b8f-92f1-4443-99cb-6c7fc8fdf6fb}, !- Name
  {50cb3eb5-4e9c-475e-b776-82fc12bdc674}, !- Source Object
  3,                                      !- Outlet Port
  {49d8e210-b646-4678-8df5-729e1d726d2f}, !- Target Object
  11;                                     !- Inlet Port

OS:Node,
  {d08bbbbc-42fe-4242-a680-d1cd0302accc}, !- Handle
  Node 3,                                 !- Name
  {27cd41b9-27c5-4d78-8257-14df05a5fc32}, !- Inlet Port
  {58c82ac8-fbfe-44fb-ba38-f3470f682637}; !- Outlet Port

OS:Node,
  {85bfd57c-f060-431d-87e5-a0c0d0d4f9f3}, !- Handle
  Node 4,                                 !- Name
  {3c376b94-1314-4151-a211-46c23e8a6717}, !- Inlet Port
  {e6459f23-7305-4332-acb7-690915b30588}; !- Outlet Port

OS:Node,
  {c7d6c573-2336-41fe-91fb-984f3f09f8ba}, !- Handle
  Node 5,                                 !- Name
  {6c44db32-768c-4dad-9e32-46367facff1c}, !- Inlet Port
  {19ac5656-3c7e-46d6-b451-9b71ee731e79}; !- Outlet Port

OS:Connection,
  {27cd41b9-27c5-4d78-8257-14df05a5fc32}, !- Handle
  {9ae7dcb3-4f10-4c6c-a9b7-b426529d611a}, !- Name
  {49d8e210-b646-4678-8df5-729e1d726d2f}, !- Source Object
  10,                                     !- Outlet Port
  {d08bbbbc-42fe-4242-a680-d1cd0302accc}, !- Target Object
  2;                                      !- Inlet Port

OS:Connection,
  {e6459f23-7305-4332-acb7-690915b30588}, !- Handle
  {181ac9b7-bfed-4683-b8fa-9afa31f01886}, !- Name
  {85bfd57c-f060-431d-87e5-a0c0d0d4f9f3}, !- Source Object
  3,                                      !- Outlet Port
  {49d8e210-b646-4678-8df5-729e1d726d2f}, !- Target Object
  9;                                      !- Inlet Port

OS:AirLoopHVAC:ZoneSplitter,
  {73a64028-3795-4639-b3f3-189b6af595a7}, !- Handle
  Air Loop HVAC Zone Splitter 1,          !- Name
  {58c82ac8-fbfe-44fb-ba38-f3470f682637}, !- Inlet Node Name
  {8cc8dc41-4f20-4b15-bad5-70a7e52aff07}, !- Outlet Node Name 1
  {94bf9fb9-b826-4a5d-9361-134c0c006ae7}; !- Outlet Node Name 2

OS:AirLoopHVAC:ZoneMixer,
  {7d5c0a28-5d4b-45f5-98fe-edf4afdd84a9}, !- Handle
  Air Loop HVAC Zone Mixer 1,             !- Name
  {3c376b94-1314-4151-a211-46c23e8a6717}, !- Outlet Node Name
  {254b9680-a06e-443a-9e83-7563feed4861}, !- Inlet Node Name 1
  {7793911b-546c-4143-9816-179bc2e56ac8}; !- Inlet Node Name 2

OS:Connection,
  {58c82ac8-fbfe-44fb-ba38-f3470f682637}, !- Handle
  {2e0f00b1-5262-4f4e-bb8e-13f2b5988895}, !- Name
  {d08bbbbc-42fe-4242-a680-d1cd0302accc}, !- Source Object
  3,                                      !- Outlet Port
  {73a64028-3795-4639-b3f3-189b6af595a7}, !- Target Object
  2;                                      !- Inlet Port

OS:Connection,
  {3c376b94-1314-4151-a211-46c23e8a6717}, !- Handle
  {46884da1-fc5a-4d9e-8717-d6a5ac74117d}, !- Name
  {7d5c0a28-5d4b-45f5-98fe-edf4afdd84a9}, !- Source Object
  2,                                      !- Outlet Port
  {85bfd57c-f060-431d-87e5-a0c0d0d4f9f3}, !- Target Object
  2;                                      !- Inlet Port

OS:Sizing:System,
  {bf09d52f-753c-43b1-917f-9e02bd816d8c}, !- Handle
  {49d8e210-b646-4678-8df5-729e1d726d2f}, !- AirLoop Name
  Sensible,                               !- Type of Load to Size On
  Autosize,                               !- Design Outdoor Air Flow Rate {m3/s}
  0.3,                                    !- Minimum System Air Flow Ratio
  7,                                      !- Preheat Design Temperature {C}
  0.008,                                  !- Preheat Design Humidity Ratio {kg-H2O/kg-Air}
  12.8,                                   !- Precool Design Temperature {C}
  0.008,                                  !- Precool Design Humidity Ratio {kg-H2O/kg-Air}
  12.8,                                   !- Central Cooling Design Supply Air Temperature {C}
  16.7,                                   !- Central Heating Design Supply Air Temperature {C}
  NonCoincident,                          !- Sizing Option
  Yes,                                    !- 100% Outdoor Air in Cooling
  Yes,                                    !- 100% Outdoor Air in Heating
  0.0085,                                 !- Central Cooling Design Supply Air Humidity Ratio {kg-H2O/kg-Air}
  0.008,                                  !- Central Heating Design Supply Air Humidity Ratio {kg-H2O/kg-Air}
  DesignDay,                              !- Cooling Design Air Flow Method
  0,                                      !- Cooling Design Air Flow Rate {m3/s}
  DesignDay,                              !- Heating Design Air Flow Method
  0,                                      !- Heating Design Air Flow Rate {m3/s}
  ZoneSum,                                !- System Outdoor Air Method
  1,                                      !- Zone Maximum Outdoor Air Fraction {dimensionless}
  0.0099676501,                           !- Cooling Supply Air Flow Rate Per Floor Area {m3/s-m2}
  1,                                      !- Cooling Fraction of Autosized Cooling Supply Air Flow Rate
  3.9475456e-005,                         !- Cooling Supply Air Flow Rate Per Unit Cooling Capacity {m3/s-W}
  0.0099676501,                           !- Heating Supply Air Flow Rate Per Floor Area {m3/s-m2}
  1,                                      !- Heating Fraction of Autosized Heating Supply Air Flow Rate
  1,                                      !- Heating Fraction of Autosized Cooling Supply Air Flow Rate
  3.1588213e-005,                         !- Heating Supply Air Flow Rate Per Unit Heating Capacity {m3/s-W}
  CoolingDesignCapacity,                  !- Cooling Design Capacity Method
  autosize,                               !- Cooling Design Capacity {W}
  234.7,                                  !- Cooling Design Capacity Per Floor Area {W/m2}
  1,                                      !- Fraction of Autosized Cooling Design Capacity
  HeatingDesignCapacity,                  !- Heating Design Capacity Method
  autosize,                               !- Heating Design Capacity {W}
  157,                                    !- Heating Design Capacity Per Floor Area {W/m2}
  1,                                      !- Fraction of Autosized Heating Design Capacity
  OnOff;                                  !- Central Cooling Capacity Control Method

OS:Schedule:Constant,
  {9d861cc2-f909-43a4-a2f8-3b78015d4ffe}, !- Handle
  Always On Discrete,                     !- Name
  {5ffec80b-7623-4c84-a532-f3e805dc848e}, !- Schedule Type Limits Name
  1;                                      !- Value

OS:ScheduleTypeLimits,
  {5ffec80b-7623-4c84-a532-f3e805dc848e}, !- Handle
  OnOff,                                  !- Name
  0,                                      !- Lower Limit Value
  1,                                      !- Upper Limit Value
  Discrete,                               !- Numeric Type
  Availability;                           !- Unit Type

OS:AvailabilityManagerAssignmentList,
  {dd3fddec-ff24-488a-89a5-cced5e889d04}, !- Handle
  Air Loop HVAC 1 AvailabilityManagerAssignmentList; !- Name

! TrackingID:#[o4Swni]
OS:Controller:OutdoorAir,
  {64290168-189a-49f1-96c1-ccc96be36f37}, !- Handle
  Controller Outdoor Air 1,               !- Name
  ,                                       !- Relief Air Outlet Node Name
  ,                                       !- Return Air Node Name
  ,                                       !- Mixed Air Node Name
  ,                                       !- Actuator Node Name
  0,                                      !- Minimum Outdoor Air Flow Rate {m3/s}
  Autosize,                               !- Maximum Outdoor Air Flow Rate {m3/s}
  NoEconomizer,                           !- Economizer Control Type
  ModulateFlow,                           !- Economizer Control Action Type
  28,                                     !- Economizer Maximum Limit Dry-Bulb Temperature {C}
  64000,                                  !- Economizer Maximum Limit Enthalpy {J/kg}
  ,                                       !- Economizer Maximum Limit Dewpoint Temperature {C}
  ,                                       !- Electronic Enthalpy Limit Curve Name
  -100,                                   !- Economizer Minimum Limit Dry-Bulb Temperature {C}
  NoLockout,                              !- Lockout Type
  FixedMinimum,                           !- Minimum Limit Type
  ,                                       !- Minimum Outdoor Air Schedule Name
  ,                                       !- Minimum Fraction of Outdoor Air Schedule Name
  ,                                       !- Maximum Fraction of Outdoor Air Schedule Name
  {7b98f5b8-2911-4959-b7fe-0f12fc583dfb}, !- Controller Mechanical Ventilation
  ,                                       !- Time of Day Economizer Control Schedule Name
  No,                                     !- High Humidity Control
  ,                                       !- Humidistat Control Zone Name
  ,                                       !- High Humidity Outdoor Air Flow Ratio
  ,                                       !- Control High Indoor Humidity Based on Outdoor Humidity Ratio
  BypassWhenWithinEconomizerLimits;       !- Heat Recovery Bypass Control Type

OS:Controller:MechanicalVentilation,
  {7b98f5b8-2911-4959-b7fe-0f12fc583dfb}, !- Handle
  Controller Mechanical Ventilation 1,    !- Name
  {9d861cc2-f909-43a4-a2f8-3b78015d4ffe}, !- Availability Schedule
  ,                                       !- Demand Controlled Ventilation
  ZoneSum;                                !- System Outdoor Air Method

! TrackingID:#[xJutyE]
OS:AirLoopHVAC:OutdoorAirSystem,
  {7f81ad83-503a-41c4-8b16-7c53c9ecb0bf}, !- Handle
  Air Loop HVAC Outdoor Air System 1,     !- Name
  {64290168-189a-49f1-96c1-ccc96be36f37}, !- Controller Name
  ,                                       !- Outdoor Air Equipment List Name
  ,                                       !- Availability Manager List Name
  {b3730567-4a73-465b-8cad-610e40a00d3a}, !- Mixed Air Node Name
  {7f646205-2c1d-4294-b970-90a8bdf00f85}, !- Outdoor Air Stream Node Name
  {2dfeaf84-60c3-4735-b9d9-4ae6f5acd9d4}, !- Relief Air Stream Node Name
  {00095c4b-d0f8-4b2a-ab9c-4ab85289e414}; !- Return Air Stream Node Name

OS:Node,
  {62afc335-9123-4f79-aa30-4fca6ec1c8d3}, !- Handle
  Node 6,                                 !- Name
  ,                                       !- Inlet Port
  {7f646205-2c1d-4294-b970-90a8bdf00f85}; !- Outlet Port

OS:Connection,
  {7f646205-2c1d-4294-b970-90a8bdf00f85}, !- Handle
  {16dafcf1-c58d-4be2-812a-9440c236303e}, !- Name
  {62afc335-9123-4f79-aa30-4fca6ec1c8d3}, !- Source Object
  3,                                      !- Outlet Port
  {7f81ad83-503a-41c4-8b16-7c53c9ecb0bf}, !- Target Object
  6;                                      !- Inlet Port

OS:Node,
  {52d06fb2-8c04-445e-a2f8-f04b9064bc73}, !- Handle
  Node 7,                                 !- Name
  {2dfeaf84-60c3-4735-b9d9-4ae6f5acd9d4}, !- Inlet Port
  ;                                       !- Outlet Port

OS:Connection,
  {2dfeaf84-60c3-4735-b9d9-4ae6f5acd9d4}, !- Handle
  {6e1e1edf-4dea-48ca-89fd-e4948b594a18}, !- Name
  {7f81ad83-503a-41c4-8b16-7c53c9ecb0bf}, !- Source Object
  7,                                      !- Outlet Port
  {52d06fb2-8c04-445e-a2f8-f04b9064bc73}, !- Target Object
  2;                                      !- Inlet Port

OS:Connection,
  {00095c4b-d0f8-4b2a-ab9c-4ab85289e414}, !- Handle
  {d7ed57d7-8efc-47b2-aa85-cc5a230883f0}, !- Name
  {e1ad3420-ebe8-4728-ae9a-fb07d7a65567}, !- Source Object
  3,                                      !- Outlet Port
  {7f81ad83-503a-41c4-8b16-7c53c9ecb0bf}, !- Target Object
  8;                                      !- Inlet Port

! TrackingID:#[O5pgQe]
OS:Coil:Cooling:Water,
  {a3abbcdb-d227-45a9-b364-e4b4f363a4ca}, !- Handle
  Coil Cooling Water 1,                   !- Name
  {9d861cc2-f909-43a4-a2f8-3b78015d4ffe}, !- Availability Schedule Name
  ,                                       !- Design Water Flow Rate {m3/s}
  ,                                       !- Design Air Flow Rate {m3/s}
  ,                                       !- Design Inlet Water Temperature {C}
  ,                                       !- Design Inlet Air Temperature {C}
  ,                                       !- Design Outlet Air Temperature {C}
  ,                                       !- Design Inlet Air Humidity Ratio {kg-H2O/kg-air}
  ,                                       !- Design Outlet Air Humidity Ratio {kg-H2O/kg-air}
  {a4317aa0-495b-407e-9a88-e3e4cdad1ed8}, !- Water Inlet Node Name
  {ed4abbd3-50b4-4d6d-bed4-eb8ba2768963}, !- Water Outlet Node Name
  {f2003af9-a5cb-417b-9157-3c536af38558}, !- Air Inlet Node Name
  {91d4d1be-d011-4e13-b132-3539cbb05a3b}, !- Air Outlet Node Name
  ,                                       !- Type of Analysis
  ;                                       !- Heat Exchanger Configuration

OS:Node,
  {a09f5a4a-1064-4c4b-bdec-4d1e2f304fef}, !- Handle
  Node 8,                                 !- Name
  {b3730567-4a73-465b-8cad-610e40a00d3a}, !- Inlet Port
  {f2003af9-a5cb-417b-9157-3c536af38558}; !- Outlet Port

OS:Connection,
  {b3730567-4a73-465b-8cad-610e40a00d3a}, !- Handle
  {a0c46b16-b215-42a6-9899-cd0bb239914c}, !- Name
  {7f81ad83-503a-41c4-8b16-7c53c9ecb0bf}, !- Source Object
  5,                                      !- Outlet Port
  {a09f5a4a-1064-4c4b-bdec-4d1e2f304fef}, !- Target Object
  2;                                      !- Inlet Port

OS:Connection,
  {f2003af9-a5cb-417b-9157-3c536af38558}, !- Handle
  {4f551376-80ac-4d06-a763-00a0478b7d06}, !- Name
  {a09f5a4a-1064-4c4b-bdec-4d1e2f304fef}, !- Source Object
  3,                                      !- Outlet Port
  {a3abbcdb-d227-45a9-b364-e4b4f363a4ca}, !- Target Object
  12;                                     !- Inlet Port

! TrackingID:#[bf2x5w]
OS:Coil:Heating:Water,
  {23132c01-0f89-4d09-a895-2719e4a947f3}, !- Handle
  Coil Heating Water 1,                   !- Name
  {9d861cc2-f909-43a4-a2f8-3b78015d4ffe}, !- Availability Schedule Name
  ,                                       !- U-Factor Times Area Value {W/K}
  ,                                       !- Maximum Water Flow Rate {m3/s}
  {07f7e19d-d8ef-4e31-970d-3c44c1910872}, !- Water Inlet Node Name
  {a3515fb8-9c26-435b-ac89-4d277c224ecf}, !- Water Outlet Node Name
  {40509c3b-9d73-4c79-8bec-10abedff8dfe}, !- Air Inlet Node Name
  {1206db8a-1b12-4876-82fc-c5ddf98a024d}, !- Air Outlet Node Name
  ,                                       !- Performance Input Method
  ,                                       !- Rated Capacity {W}
  ,                                       !- Rated Inlet Water Temperature {C}
  ,                                       !- Rated Inlet Air Temperature {C}
  ,                                       !- Rated Outlet Water Temperature {C}
  ,                                       !- Rated Outlet Air Temperature {C}
  ;                                       !- Rated Ratio for Air and Water Convection

OS:Node,
  {c1b2a6de-17b2-43f7-a3f4-91edd5b18979}, !- Handle
  Node 9,                                 !- Name
  {91d4d1be-d011-4e13-b132-3539cbb05a3b}, !- Inlet Port
  {40509c3b-9d73-4c79-8bec-10abedff8dfe}; !- Outlet Port

OS:Connection,
  {91d4d1be-d011-4e13-b132-3539cbb05a3b}, !- Handle
  {493590db-8f69-4f64-a71d-2d4a8fdee7a3}, !- Name
  {a3abbcdb-d227-45a9-b364-e4b4f363a4ca}, !- Source Object
  13,                                     !- Outlet Port
  {c1b2a6de-17b2-43f7-a3f4-91edd5b18979}, !- Target Object
  2;                                      !- Inlet Port

OS:Connection,
  {40509c3b-9d73-4c79-8bec-10abedff8dfe}, !- Handle
  {8086f9a9-2fe2-4aa5-bcf1-c4f2b05e3964}, !- Name
  {c1b2a6de-17b2-43f7-a3f4-91edd5b18979}, !- Source Object
  3,                                      !- Outlet Port
  {23132c01-0f89-4d09-a895-2719e4a947f3}, !- Target Object
  7;                                      !- Inlet Port

! TrackingID:#[5JlYCU]
OS:Fan:VariableVolume,
  {dcb2e904-e8fd-4bd7-92aa-436388630e1d}, !- Handle
  Fan Variable Volume 1,                  !- Name
  {9d861cc2-f909-43a4-a2f8-3b78015d4ffe}, !- Availability Schedule Name
  0.6045,                                 !- Fan Efficiency
  1017.592,                               !- Pressure Rise {Pa}
  Autosize,                               !- Maximum Flow Rate {m3/s}
  FixedFlowRate,                          !- Fan Power Minimum Flow Rate Input Method
  0,                                      !- Fan Power Minimum Flow Fraction
  0,                                      !- Fan Power Minimum Air Flow Rate {m3/s}
  0.93,                                   !- Motor Efficiency
  1,                                      !- Motor In Airstream Fraction
  0.040759894,                            !- Fan Power Coefficient 1
  0.08804497,                             !- Fan Power Coefficient 2
  -0.07292612,                            !- Fan Power Coefficient 3
  0.943739823,                            !- Fan Power Coefficient 4
  0,                                      !- Fan Power Coefficient 5
  {c1419d62-544a-4ae7-b3df-995c1c2ada54}, !- Air Inlet Node Name
  {fcb40c54-c013-4bea-877a-3b6fff83628a}, !- Air Outlet Node Name
  ;                                       !- End-Use Subcategory

OS:Node,
  {e257e0da-1a60-4d4b-af79-bde03c9b3ff8}, !- Handle
  Node 10,                                !- Name
  {1206db8a-1b12-4876-82fc-c5ddf98a024d}, !- Inlet Port
  {c1419d62-544a-4ae7-b3df-995c1c2ada54}; !- Outlet Port

OS:Connection,
  {1206db8a-1b12-4876-82fc-c5ddf98a024d}, !- Handle
  {b20d1f1c-c776-4c32-b17b-0513e17a6187}, !- Name
  {23132c01-0f89-4d09-a895-2719e4a947f3}, !- Source Object
  8,                                      !- Outlet Port
  {e257e0da-1a60-4d4b-af79-bde03c9b3ff8}, !- Target Object
  2;                                      !- Inlet Port

OS:Connection,
  {c1419d62-544a-4ae7-b3df-995c1c2ada54}, !- Handle
  {d07962b3-414f-469e-bebe-f7eab763279b}, !- Name
  {e257e0da-1a60-4d4b-af79-bde03c9b3ff8}, !- Source Object
  3,                                      !- Outlet Port
  {dcb2e904-e8fd-4bd7-92aa-436388630e1d}, !- Target Object
  16;                                     !- Inlet Port

OS:Connection,
  {fcb40c54-c013-4bea-877a-3b6fff83628a}, !- Handle
  {a5c17aba-23e5-4470-920f-833c02ae21ca}, !- Name
  {dcb2e904-e8fd-4bd7-92aa-436388630e1d}, !- Source Object
  17,                                     !- Outlet Port
  {50cb3eb5-4e9c-475e-b776-82fc12bdc674}, !- Target Object
  2;                                      !- Inlet Port

! TrackingID:#[gho0VA]
OS:ThermalZone,
  {37e06bb4-0abc-4b7d-bd03-835b30e15008}, !- Handle
  zone_0,                                 !- Name
  ,                                       !- Multiplier
  ,                                       !- Ceiling Height {m}
  ,                                       !- Volume {m3}
  ,                                       !- Floor Area {m2}
  ,                                       !- Zone Inside Convection Algorithm
  ,                                       !- Zone Outside Convection Algorithm
  ,                                       !- Zone Conditioning Equipment List Name
  {d6bf5655-cbc8-47ab-a996-b7700fae1aaf}, !- Zone Air Inlet Port List
  {e6cf730c-82f0-4a08-b0f7-860fcc82287a}, !- Zone Air Exhaust Port List
  {16bf52b4-3762-476e-8f8f-f6e941cb68b4}, !- Zone Air Node Name
  {f8713ef4-f5cd-4625-9ab2-4c9ff97a5165}, !- Zone Return Air Node Name
  ,                                       !- Primary Daylighting Control Name
  ,                                       !- Fraction of Zone Controlled by Primary Daylighting Control
  ,                                       !- Secondary Daylighting Control Name
  ,                                       !- Fraction of Zone Controlled by Secondary Daylighting Control
  ,                                       !- Illuminance Map Name
  ,                                       !- Group Rendering Name
  ,                                       !- Thermostat Name
  No;                                     !- Use Ideal Air Loads

OS:Node,
  {dd5ad7bc-f385-48bf-b2c5-d623cab30223}, !- Handle
  Node 11,                                !- Name
  {16bf52b4-3762-476e-8f8f-f6e941cb68b4}, !- Inlet Port
  ;                                       !- Outlet Port

OS:Connection,
  {16bf52b4-3762-476e-8f8f-f6e941cb68b4}, !- Handle
  {7bfed4c1-9c84-4464-b463-8179644cafd6}, !- Name
  {37e06bb4-0abc-4b7d-bd03-835b30e15008}, !- Source Object
  11,                                     !- Outlet Port
  {dd5ad7bc-f385-48bf-b2c5-d623cab30223}, !- Target Object
  2;                                      !- Inlet Port

OS:PortList,
  {d6bf5655-cbc8-47ab-a996-b7700fae1aaf}, !- Handle
  {f888eab0-50a6-4427-8b07-0992538dd476}, !- Name
  {37e06bb4-0abc-4b7d-bd03-835b30e15008}, !- HVAC Component
  {19ac5656-3c7e-46d6-b451-9b71ee731e79}; !- Port 1

OS:PortList,
  {e6cf730c-82f0-4a08-b0f7-860fcc82287a}, !- Handle
  {3ea2a0a3-0bea-4aa0-a6ee-e1351ac7d60c}, !- Name
  {37e06bb4-0abc-4b7d-bd03-835b30e15008}; !- HVAC Component

OS:Sizing:Zone,
  {15dc0621-362e-4cfd-8ef1-7d484004585f}, !- Handle
  {37e06bb4-0abc-4b7d-bd03-835b30e15008}, !- Zone or ZoneList Name
  SupplyAirTemperature,                   !- Zone Cooling Design Supply Air Temperature Input Method
  14,                                     !- Zone Cooling Design Supply Air Temperature {C}
  11.11,                                  !- Zone Cooling Design Supply Air Temperature Difference {deltaC}
  SupplyAirTemperature,                   !- Zone Heating Design Supply Air Temperature Input Method
  40,                                     !- Zone Heating Design Supply Air Temperature {C}
  11.11,                                  !- Zone Heating Design Supply Air Temperature Difference {deltaC}
  0.0085,                                 !- Zone Cooling Design Supply Air Humidity Ratio {kg-H2O/kg-air}
  0.008,                                  !- Zone Heating Design Supply Air Humidity Ratio {kg-H2O/kg-air}
  ,                                       !- Zone Heating Sizing Factor
  ,                                       !- Zone Cooling Sizing Factor
  DesignDay,                              !- Cooling Design Air Flow Method
  ,                                       !- Cooling Design Air Flow Rate {m3/s}
  ,                                       !- Cooling Minimum Air Flow per Zone Floor Area {m3/s-m2}
  ,                                       !- Cooling Minimum Air Flow {m3/s}
  ,                                       !- Cooling Minimum Air Flow Fraction
  DesignDay,                              !- Heating Design Air Flow Method
  ,                                       !- Heating Design Air Flow Rate {m3/s}
  ,                                       !- Heating Maximum Air Flow per Zone Floor Area {m3/s-m2}
  ,                                       !- Heating Maximum Air Flow {m3/s}
  ,                                       !- Heating Maximum Air Flow Fraction
  ,                                       !- Design Zone Air Distribution Effectiveness in Cooling Mode
  ,                                       !- Design Zone Air Distribution Effectiveness in Heating Mode
  No,                                     !- Account for Dedicated Outdoor Air System
  NeutralSupplyAir,                       !- Dedicated Outdoor Air System Control Strategy
  autosize,                               !- Dedicated Outdoor Air Low Setpoint Temperature for Design {C}
  autosize;                               !- Dedicated Outdoor Air High Setpoint Temperature for Design {C}

OS:ZoneHVAC:EquipmentList,
  {a6c25b9f-a43e-48a8-802f-2bd0ca14cb3b}, !- Handle
  Zone HVAC Equipment List 1,             !- Name
  {37e06bb4-0abc-4b7d-bd03-835b30e15008}, !- Thermal Zone
  {0fcdecb5-adf4-4451-924a-3c86a8ce35cd}, !- Zone Equipment 1
  1,                                      !- Zone Equipment Cooling Sequence 1
  1;                                      !- Zone Equipment Heating or No-Load Sequence 1

! TrackingID:#[zN95tJ]
OS:Sizing:Zone,
  {645f177f-3d9f-4fae-9539-8a29b438a77e}, !- Handle
  {37e06bb4-0abc-4b7d-bd03-835b30e15008}, !- Zone or ZoneList Name
  SupplyAirTemperature,                   !- Zone Cooling Design Supply Air Temperature Input Method
  14,                                     !- Zone Cooling Design Supply Air Temperature {C}
  11.11,                                  !- Zone Cooling Design Supply Air Temperature Difference {deltaC}
  SupplyAirTemperature,                   !- Zone Heating Design Supply Air Temperature Input Method
  40,                                     !- Zone Heating Design Supply Air Temperature {C}
  11.11,                                  !- Zone Heating Design Supply Air Temperature Difference {deltaC}
  0.0085,                                 !- Zone Cooling Design Supply Air Humidity Ratio {kg-H2O/kg-air}
  0.008,                                  !- Zone Heating Design Supply Air Humidity Ratio {kg-H2O/kg-air}
  ,                                       !- Zone Heating Sizing Factor
  ,                                       !- Zone Cooling Sizing Factor
  DesignDay,                              !- Cooling Design Air Flow Method
  ,                                       !- Cooling Design Air Flow Rate {m3/s}
  ,                                       !- Cooling Minimum Air Flow per Zone Floor Area {m3/s-m2}
  ,                                       !- Cooling Minimum Air Flow {m3/s}
  ,                                       !- Cooling Minimum Air Flow Fraction
  DesignDay,                              !- Heating Design Air Flow Method
  ,                                       !- Heating Design Air Flow Rate {m3/s}
  ,                                       !- Heating Maximum Air Flow per Zone Floor Area {m3/s-m2}
  ,                                       !- Heating Maximum Air Flow {m3/s}
  ,                                       !- Heating Maximum Air Flow Fraction
  ,                                       !- Design Zone Air Distribution Effectiveness in Cooling Mode
  ,                                       !- Design Zone Air Distribution Effectiveness in Heating Mode
  No,                                     !- Account for Dedicated Outdoor Air System
  NeutralSupplyAir,                       !- Dedicated Outdoor Air System Control Strategy
  autosize,                               !- Dedicated Outdoor Air Low Setpoint Temperature for Design {C}
  autosize;                               !- Dedicated Outdoor Air High Setpoint Temperature for Design {C}

OS:Coil:Heating:Water,
  {ff0a8a5c-fc0c-4fad-a327-1427c74f52d3}, !- Handle
  Coil Heating Water 2,                   !- Name
  {9d861cc2-f909-43a4-a2f8-3b78015d4ffe}, !- Availability Schedule Name
  ,                                       !- U-Factor Times Area Value {W/K}
  ,                                       !- Maximum Water Flow Rate {m3/s}
  ,                                       !- Water Inlet Node Name
  ,                                       !- Water Outlet Node Name
  ,                                       !- Air Inlet Node Name
  ,                                       !- Air Outlet Node Name
  ,                                       !- Performance Input Method
  ,                                       !- Rated Capacity {W}
  ,                                       !- Rated Inlet Water Temperature {C}
  ,                                       !- Rated Inlet Air Temperature {C}
  ,                                       !- Rated Outlet Water Temperature {C}
  ,                                       !- Rated Outlet Air Temperature {C}
  ;                                       !- Rated Ratio for Air and Water Convection

! TrackingID:#[y4zkHb]