
OS:Version,
  {b6dea216-9850-414f-838d-a49ae0927e38}, !- Handle
  2.4.0;                                  !- Version Identifier

OS:AirLoopHVAC,
  {1c5ee81b-0325-4791-b6fe-5d48f2f9e3b7}, !- Handle
  Air Loop HVAC 1,                        !- Name
  ,                                       !- Controller List Name
  {9a46ba3c-34d4-497d-9b79-982e802de5b1}, !- Availability Schedule
  {12f54b14-528b-4d2c-aa39-72723134cda2}, !- Availability Manager List Name
  AutoSize,                               !- Design Supply Air Flow Rate {m3/s}
  ,                                       !- Branch List Name
  ,                                       !- Connector List Name
  {d87fa534-b2df-47bb-a247-cd6e22a7d020}, !- Supply Side Inlet Node Name
  {7459b045-dc8d-4870-b237-bd0fd3ff00a4}, !- Demand Side Outlet Node Name
  {13bc1b96-d5f4-40b5-bb04-93de2e4b1c99}, !- Demand Side Inlet Node A
  {45470f3d-cfaf-4ec6-bf86-281d44d44853}, !- Supply Side Outlet Node A
  ,                                       !- Demand Side Inlet Node B
  ,                                       !- Supply Side Outlet Node B
  ,                                       !- Return Air Bypass Flow Temperature Setpoint Schedule Name
  {81f08614-bf71-48d6-ace6-f517652af57f}, !- Demand Mixer Name
  {83cdbb45-610e-4502-9885-cd5e6835bb6a}, !- Demand Splitter A Name
  ,                                       !- Demand Splitter B Name
  ;                                       !- Supply Splitter Name

OS:Node,
  {d8987460-d250-4e0c-98bc-e9c596a1ba9e}, !- Handle
  Node 1,                                 !- Name
  {d87fa534-b2df-47bb-a247-cd6e22a7d020}, !- Inlet Port
  {13f8f6d4-d6ed-461d-915c-9639dfbc6117}; !- Outlet Port

OS:Node,
  {680a99a9-87b6-4472-8bb0-29a8e0165c23}, !- Handle
  Node 2,                                 !- Name
  {944fe9bf-c0e9-47a5-a7fc-e0a6236d83ec}, !- Inlet Port
  {45470f3d-cfaf-4ec6-bf86-281d44d44853}; !- Outlet Port

OS:Connection,
  {d87fa534-b2df-47bb-a247-cd6e22a7d020}, !- Handle
  {d0e367d3-6300-417f-a6f5-bd06ce82da05}, !- Name
  {1c5ee81b-0325-4791-b6fe-5d48f2f9e3b7}, !- Source Object
  8,                                      !- Outlet Port
  {d8987460-d250-4e0c-98bc-e9c596a1ba9e}, !- Target Object
  2;                                      !- Inlet Port

OS:Connection,
  {45470f3d-cfaf-4ec6-bf86-281d44d44853}, !- Handle
  {26491764-d871-4610-b13a-ec3e508af6e5}, !- Name
  {680a99a9-87b6-4472-8bb0-29a8e0165c23}, !- Source Object
  3,                                      !- Outlet Port
  {1c5ee81b-0325-4791-b6fe-5d48f2f9e3b7}, !- Target Object
  11;                                     !- Inlet Port

OS:Node,
  {880444f4-0ef1-4e1e-9ac2-e81e97bb9e64}, !- Handle
  Node 3,                                 !- Name
  {13bc1b96-d5f4-40b5-bb04-93de2e4b1c99}, !- Inlet Port
  {8af294ba-7b63-446a-9b87-ecad33e03aad}; !- Outlet Port

OS:Node,
  {4924e4a2-82e6-4a72-9116-14df344c3477}, !- Handle
  Node 4,                                 !- Name
  {53733423-5384-416c-ba3d-04ba6b5058ca}, !- Inlet Port
  {7459b045-dc8d-4870-b237-bd0fd3ff00a4}; !- Outlet Port

OS:Node,
  {886b7875-6df8-483c-8ac9-ea6c953db455}, !- Handle
  Node 5,                                 !- Name
  {178e7338-b433-4083-ac35-a3d5c307c817}, !- Inlet Port
  {9fc02dfc-8160-4896-a37e-13d43f4e8140}; !- Outlet Port

OS:Connection,
  {13bc1b96-d5f4-40b5-bb04-93de2e4b1c99}, !- Handle
  {bd9a09bf-bb11-4772-a548-e7469bd05a82}, !- Name
  {1c5ee81b-0325-4791-b6fe-5d48f2f9e3b7}, !- Source Object
  10,                                     !- Outlet Port
  {880444f4-0ef1-4e1e-9ac2-e81e97bb9e64}, !- Target Object
  2;                                      !- Inlet Port

OS:Connection,
  {7459b045-dc8d-4870-b237-bd0fd3ff00a4}, !- Handle
  {22c76d5f-c30d-4197-8c68-1796da75eab0}, !- Name
  {4924e4a2-82e6-4a72-9116-14df344c3477}, !- Source Object
  3,                                      !- Outlet Port
  {1c5ee81b-0325-4791-b6fe-5d48f2f9e3b7}, !- Target Object
  9;                                      !- Inlet Port

OS:AirLoopHVAC:ZoneSplitter,
  {83cdbb45-610e-4502-9885-cd5e6835bb6a}, !- Handle
  Air Loop HVAC Zone Splitter 1,          !- Name
  {8af294ba-7b63-446a-9b87-ecad33e03aad}, !- Inlet Node Name
  {178e7338-b433-4083-ac35-a3d5c307c817}; !- Outlet Node Name 1

OS:AirLoopHVAC:ZoneMixer,
  {81f08614-bf71-48d6-ace6-f517652af57f}, !- Handle
  Air Loop HVAC Zone Mixer 1,             !- Name
  {53733423-5384-416c-ba3d-04ba6b5058ca}, !- Outlet Node Name
  {9fc02dfc-8160-4896-a37e-13d43f4e8140}; !- Inlet Node Name 1

OS:Connection,
  {8af294ba-7b63-446a-9b87-ecad33e03aad}, !- Handle
  {6ad1c918-9534-44bc-87e3-a2cb4bc9edb1}, !- Name
  {880444f4-0ef1-4e1e-9ac2-e81e97bb9e64}, !- Source Object
  3,                                      !- Outlet Port
  {83cdbb45-610e-4502-9885-cd5e6835bb6a}, !- Target Object
  2;                                      !- Inlet Port

OS:Connection,
  {178e7338-b433-4083-ac35-a3d5c307c817}, !- Handle
  {cfe89ec9-abad-4cdd-be64-4edaff91d9ce}, !- Name
  {83cdbb45-610e-4502-9885-cd5e6835bb6a}, !- Source Object
  3,                                      !- Outlet Port
  {886b7875-6df8-483c-8ac9-ea6c953db455}, !- Target Object
  2;                                      !- Inlet Port

OS:Connection,
  {9fc02dfc-8160-4896-a37e-13d43f4e8140}, !- Handle
  {6c9da095-6424-48f6-b92e-f393b45dd64a}, !- Name
  {886b7875-6df8-483c-8ac9-ea6c953db455}, !- Source Object
  3,                                      !- Outlet Port
  {81f08614-bf71-48d6-ace6-f517652af57f}, !- Target Object
  3;                                      !- Inlet Port

OS:Connection,
  {53733423-5384-416c-ba3d-04ba6b5058ca}, !- Handle
  {87ac5c1f-daeb-40a4-b007-378ca1e15b07}, !- Name
  {81f08614-bf71-48d6-ace6-f517652af57f}, !- Source Object
  2,                                      !- Outlet Port
  {4924e4a2-82e6-4a72-9116-14df344c3477}, !- Target Object
  2;                                      !- Inlet Port

OS:Sizing:System,
  {381e297c-2bb2-4402-8877-e456be2dafa8}, !- Handle
  {1c5ee81b-0325-4791-b6fe-5d48f2f9e3b7}, !- AirLoop Name
  Sensible,                               !- Type of Load to Size On
  Autosize,                               !- Design Outdoor Air Flow Rate {m3/s}
  0.3,                                    !- Minimum System Air Flow Ratio
  7,                                      !- Preheat Design Temperature {C}
  0.008,                                  !- Preheat Design Humidity Ratio {kg-H2O/kg-Air}
  12.8,                                   !- Precool Design Temperature {C}
  0.008,                                  !- Precool Design Humidity Ratio {kg-H2O/kg-Air}
  12.8,                                   !- Central Cooling Design Supply Air Temperature {C}
  16.7,                                   !- Central Heating Design Supply Air Temperature {C}
  NonCoincident,                          !- Sizing Option
  Yes,                                    !- 100% Outdoor Air in Cooling
  Yes,                                    !- 100% Outdoor Air in Heating
  0.0085,                                 !- Central Cooling Design Supply Air Humidity Ratio {kg-H2O/kg-Air}
  0.008,                                  !- Central Heating Design Supply Air Humidity Ratio {kg-H2O/kg-Air}
  DesignDay,                              !- Cooling Design Air Flow Method
  0,                                      !- Cooling Design Air Flow Rate {m3/s}
  DesignDay,                              !- Heating Design Air Flow Method
  0,                                      !- Heating Design Air Flow Rate {m3/s}
  ZoneSum,                                !- System Outdoor Air Method
  1,                                      !- Zone Maximum Outdoor Air Fraction {dimensionless}
  0.0099676501,                           !- Cooling Supply Air Flow Rate Per Floor Area {m3/s-m2}
  1,                                      !- Cooling Fraction of Autosized Cooling Supply Air Flow Rate
  3.9475456e-005,                         !- Cooling Supply Air Flow Rate Per Unit Cooling Capacity {m3/s-W}
  0.0099676501,                           !- Heating Supply Air Flow Rate Per Floor Area {m3/s-m2}
  1,                                      !- Heating Fraction of Autosized Heating Supply Air Flow Rate
  1,                                      !- Heating Fraction of Autosized Cooling Supply Air Flow Rate
  3.1588213e-005,                         !- Heating Supply Air Flow Rate Per Unit Heating Capacity {m3/s-W}
  CoolingDesignCapacity,                  !- Cooling Design Capacity Method
  autosize,                               !- Cooling Design Capacity {W}
  234.7,                                  !- Cooling Design Capacity Per Floor Area {W/m2}
  1,                                      !- Fraction of Autosized Cooling Design Capacity
  HeatingDesignCapacity,                  !- Heating Design Capacity Method
  autosize,                               !- Heating Design Capacity {W}
  157,                                    !- Heating Design Capacity Per Floor Area {W/m2}
  1,                                      !- Fraction of Autosized Heating Design Capacity
  OnOff;                                  !- Central Cooling Capacity Control Method

OS:Schedule:Constant,
  {9a46ba3c-34d4-497d-9b79-982e802de5b1}, !- Handle
  Always On Discrete,                     !- Name
  {22dd0bfa-78ba-4ec8-860d-8ec3ad5a7af6}, !- Schedule Type Limits Name
  1;                                      !- Value

OS:ScheduleTypeLimits,
  {22dd0bfa-78ba-4ec8-860d-8ec3ad5a7af6}, !- Handle
  OnOff,                                  !- Name
  0,                                      !- Lower Limit Value
  1,                                      !- Upper Limit Value
  Discrete,                               !- Numeric Type
  Availability;                           !- Unit Type

OS:AvailabilityManagerAssignmentList,
  {12f54b14-528b-4d2c-aa39-72723134cda2}, !- Handle
  Air Loop HVAC 1 AvailabilityManagerAssignmentList; !- Name

! TrackingID:#[cLDGax]
OS:Fan:VariableVolume,
  {a4e16793-1a58-4469-932f-5848aa53c048}, !- Handle
  Fan Variable Volume 1,                  !- Name
  {9a46ba3c-34d4-497d-9b79-982e802de5b1}, !- Availability Schedule Name
  0.6045,                                 !- Fan Efficiency
  1017.592,                               !- Pressure Rise {Pa}
  Autosize,                               !- Maximum Flow Rate {m3/s}
  FixedFlowRate,                          !- Fan Power Minimum Flow Rate Input Method
  0,                                      !- Fan Power Minimum Flow Fraction
  0,                                      !- Fan Power Minimum Air Flow Rate {m3/s}
  0.93,                                   !- Motor Efficiency
  1,                                      !- Motor In Airstream Fraction
  0.040759894,                            !- Fan Power Coefficient 1
  0.08804497,                             !- Fan Power Coefficient 2
  -0.07292612,                            !- Fan Power Coefficient 3
  0.943739823,                            !- Fan Power Coefficient 4
  0,                                      !- Fan Power Coefficient 5
  {13f8f6d4-d6ed-461d-915c-9639dfbc6117}, !- Air Inlet Node Name
  {944fe9bf-c0e9-47a5-a7fc-e0a6236d83ec}, !- Air Outlet Node Name
  ;                                       !- End-Use Subcategory

OS:Connection,
  {13f8f6d4-d6ed-461d-915c-9639dfbc6117}, !- Handle
  {b76f2709-73d1-4eec-950d-1c25595206e3}, !- Name
  {d8987460-d250-4e0c-98bc-e9c596a1ba9e}, !- Source Object
  3,                                      !- Outlet Port
  {a4e16793-1a58-4469-932f-5848aa53c048}, !- Target Object
  16;                                     !- Inlet Port

OS:Connection,
  {944fe9bf-c0e9-47a5-a7fc-e0a6236d83ec}, !- Handle
  {b240c2d9-670b-460f-85e8-ade938b693c5}, !- Name
  {a4e16793-1a58-4469-932f-5848aa53c048}, !- Source Object
  17,                                     !- Outlet Port
  {680a99a9-87b6-4472-8bb0-29a8e0165c23}, !- Target Object
  2;                                      !- Inlet Port

! TrackingID:#[t50rRo]
OS:PlantLoop,
  {3d85bcbd-2beb-4c84-a87c-5340aafe1cc6}, !- Handle
  Plant Loop 1,                           !- Name
  Water,                                  !- Fluid Type
  0,                                      !- Glycol Concentration
  ,                                       !- User Defined Fluid Type
  ,                                       !- Plant Equipment Operation Heating Load
  ,                                       !- Plant Equipment Operation Cooling Load
  ,                                       !- Primary Plant Equipment Operation Scheme
  {4947320d-d52b-45f4-a22d-6e2fe2ba0925}, !- Loop Temperature Setpoint Node Name
  ,                                       !- Maximum Loop Temperature {C}
  ,                                       !- Minimum Loop Temperature {C}
  ,                                       !- Maximum Loop Flow Rate {m3/s}
  ,                                       !- Minimum Loop Flow Rate {m3/s}
  Autocalculate,                          !- Plant Loop Volume {m3}
  {0e7b08fa-dcac-49dc-ad7d-d9900094163a}, !- Plant Side Inlet Node Name
  {db2d721d-52f9-45d0-bec8-043642594650}, !- Plant Side Outlet Node Name
  ,                                       !- Plant Side Branch List Name
  {85133467-15ab-41dc-9060-6fd708c6bec2}, !- Demand Side Inlet Node Name
  {18345494-a78e-4c38-b912-a910dab59ba3}, !- Demand Side Outlet Node Name
  ,                                       !- Demand Side Branch List Name
  ,                                       !- Demand Side Connector List Name
  Optimal,                                !- Load Distribution Scheme
  {6e944768-7634-4d18-8948-5ebd84b5e3f9}, !- Availability Manager List Name
  ,                                       !- Plant Loop Demand Calculation Scheme
  ,                                       !- Common Pipe Simulation
  ,                                       !- Pressure Simulation Type
  ,                                       !- Plant Equipment Operation Heating Load Schedule
  ,                                       !- Plant Equipment Operation Cooling Load Schedule
  ,                                       !- Primary Plant Equipment Operation Scheme Schedule
  ,                                       !- Component Setpoint Operation Scheme Schedule
  {51bb96ee-eb5d-485a-a57b-ab2e5b66f679}, !- Demand Mixer Name
  {885ac68d-a1ee-4616-8d6a-81e7a50a0b3f}, !- Demand Splitter Name
  {92acac62-fbba-4371-9199-23791cd57d12}, !- Supply Mixer Name
  {44987801-9063-40fd-82c7-6ea54a0d2085}; !- Supply Splitter Name

OS:Sizing:Plant,
  {e4127702-a40d-45cb-8106-1228aed9c785}, !- Handle
  {3d85bcbd-2beb-4c84-a87c-5340aafe1cc6}, !- Plant or Condenser Loop Name
  Heating,                                !- Loop Type
  82,                                     !- Design Loop Exit Temperature {C}
  11,                                     !- Loop Design Temperature Difference {deltaC}
  NonCoincident,                          !- Sizing Option
  1,                                      !- Zone Timesteps in Averaging Window
  None;                                   !- Coincident Sizing Factor Mode

OS:Node,
  {4a1bcc9f-3185-4037-ad5f-09248fb25b6c}, !- Handle
  Node 6,                                 !- Name
  {0e7b08fa-dcac-49dc-ad7d-d9900094163a}, !- Inlet Port
  {cff6f5d9-7d21-48a1-9eda-3ac57298c8a5}; !- Outlet Port

OS:Node,
  {4947320d-d52b-45f4-a22d-6e2fe2ba0925}, !- Handle
  Node 7,                                 !- Name
  {cb9d0afe-ea7b-4b48-a2b2-84eeea6aafd2}, !- Inlet Port
  {db2d721d-52f9-45d0-bec8-043642594650}; !- Outlet Port

OS:Node,
  {56dfe7c1-986e-4070-8e3c-84f0edab4c2e}, !- Handle
  Node 8,                                 !- Name
  {859242be-64ca-4b9f-9d11-90397807b9aa}, !- Inlet Port
  {5b40856a-f4fb-455a-947d-922fcc3cca1e}; !- Outlet Port

OS:Connector:Mixer,
  {92acac62-fbba-4371-9199-23791cd57d12}, !- Handle
  Connector Mixer 1,                      !- Name
  {cb9d0afe-ea7b-4b48-a2b2-84eeea6aafd2}, !- Outlet Branch Name
  {0f74a06d-6b8c-4e58-bd98-b60e27dc0445}, !- Inlet Branch Name 1
  {375a4a1f-86c6-4e3e-a489-f0b0d8b56043}; !- Inlet Branch Name 2

OS:Connector:Splitter,
  {44987801-9063-40fd-82c7-6ea54a0d2085}, !- Handle
  Connector Splitter 1,                   !- Name
  {cff6f5d9-7d21-48a1-9eda-3ac57298c8a5}, !- Inlet Branch Name
  {859242be-64ca-4b9f-9d11-90397807b9aa}, !- Outlet Branch Name 1
  {a7fecd3e-e08e-49e6-8b90-e597eb86f5e1}; !- Outlet Branch Name 2

OS:Connection,
  {0e7b08fa-dcac-49dc-ad7d-d9900094163a}, !- Handle
  {5578e80e-71e3-4dd9-a8f6-ba11f71ae83d}, !- Name
  {3d85bcbd-2beb-4c84-a87c-5340aafe1cc6}, !- Source Object
  14,                                     !- Outlet Port
  {4a1bcc9f-3185-4037-ad5f-09248fb25b6c}, !- Target Object
  2;                                      !- Inlet Port

OS:Connection,
  {cff6f5d9-7d21-48a1-9eda-3ac57298c8a5}, !- Handle
  {e6f83a25-9fc9-4c57-9c93-446e80ce3144}, !- Name
  {4a1bcc9f-3185-4037-ad5f-09248fb25b6c}, !- Source Object
  3,                                      !- Outlet Port
  {44987801-9063-40fd-82c7-6ea54a0d2085}, !- Target Object
  2;                                      !- Inlet Port

OS:Connection,
  {859242be-64ca-4b9f-9d11-90397807b9aa}, !- Handle
  {bf8979ab-3702-4bfc-a969-23cf8a4a6b63}, !- Name
  {44987801-9063-40fd-82c7-6ea54a0d2085}, !- Source Object
  3,                                      !- Outlet Port
  {56dfe7c1-986e-4070-8e3c-84f0edab4c2e}, !- Target Object
  2;                                      !- Inlet Port

OS:Connection,
  {cb9d0afe-ea7b-4b48-a2b2-84eeea6aafd2}, !- Handle
  {b8a30016-b416-47d7-82d1-d825163503bc}, !- Name
  {92acac62-fbba-4371-9199-23791cd57d12}, !- Source Object
  2,                                      !- Outlet Port
  {4947320d-d52b-45f4-a22d-6e2fe2ba0925}, !- Target Object
  2;                                      !- Inlet Port

OS:Connection,
  {db2d721d-52f9-45d0-bec8-043642594650}, !- Handle
  {47c12428-8cf7-489b-9de2-7d9654b5da81}, !- Name
  {4947320d-d52b-45f4-a22d-6e2fe2ba0925}, !- Source Object
  3,                                      !- Outlet Port
  {3d85bcbd-2beb-4c84-a87c-5340aafe1cc6}, !- Target Object
  15;                                     !- Inlet Port

OS:Node,
  {df869712-1a8d-4b97-aee1-4c0dd4fd0910}, !- Handle
  Node 9,                                 !- Name
  {85133467-15ab-41dc-9060-6fd708c6bec2}, !- Inlet Port
  {bfe586d8-3279-4be0-88b3-b8e8c993f5fe}; !- Outlet Port

OS:Node,
  {1cbb3d3f-4766-4f08-8914-63361d1975d8}, !- Handle
  Node 10,                                !- Name
  {10bfa224-ef28-4bfb-b8e3-7112b634fb1b}, !- Inlet Port
  {18345494-a78e-4c38-b912-a910dab59ba3}; !- Outlet Port

OS:Node,
  {355e7ff1-a865-4924-b420-5be8b289aad0}, !- Handle
  Node 11,                                !- Name
  {ed4e2753-a1bc-44bb-9bce-1ffdbdc5d849}, !- Inlet Port
  {38ee8c1d-d5da-4e64-a97a-d0455afd0f7b}; !- Outlet Port

OS:Connector:Mixer,
  {51bb96ee-eb5d-485a-a57b-ab2e5b66f679}, !- Handle
  Connector Mixer 2,                      !- Name
  {10bfa224-ef28-4bfb-b8e3-7112b634fb1b}, !- Outlet Branch Name
  {38ee8c1d-d5da-4e64-a97a-d0455afd0f7b}; !- Inlet Branch Name 1

OS:Connector:Splitter,
  {885ac68d-a1ee-4616-8d6a-81e7a50a0b3f}, !- Handle
  Connector Splitter 2,                   !- Name
  {bfe586d8-3279-4be0-88b3-b8e8c993f5fe}, !- Inlet Branch Name
  {ed4e2753-a1bc-44bb-9bce-1ffdbdc5d849}; !- Outlet Branch Name 1

OS:Connection,
  {85133467-15ab-41dc-9060-6fd708c6bec2}, !- Handle
  {30cf7875-0b4b-4cd6-813f-52435a13dcdb}, !- Name
  {3d85bcbd-2beb-4c84-a87c-5340aafe1cc6}, !- Source Object
  17,                                     !- Outlet Port
  {df869712-1a8d-4b97-aee1-4c0dd4fd0910}, !- Target Object
  2;                                      !- Inlet Port

OS:Connection,
  {bfe586d8-3279-4be0-88b3-b8e8c993f5fe}, !- Handle
  {90319418-7a4e-42ca-9449-7845c481e691}, !- Name
  {df869712-1a8d-4b97-aee1-4c0dd4fd0910}, !- Source Object
  3,                                      !- Outlet Port
  {885ac68d-a1ee-4616-8d6a-81e7a50a0b3f}, !- Target Object
  2;                                      !- Inlet Port

OS:Connection,
  {ed4e2753-a1bc-44bb-9bce-1ffdbdc5d849}, !- Handle
  {df562caf-8cba-421a-b07a-69ad121a9b4d}, !- Name
  {885ac68d-a1ee-4616-8d6a-81e7a50a0b3f}, !- Source Object
  3,                                      !- Outlet Port
  {355e7ff1-a865-4924-b420-5be8b289aad0}, !- Target Object
  2;                                      !- Inlet Port

OS:Connection,
  {38ee8c1d-d5da-4e64-a97a-d0455afd0f7b}, !- Handle
  {5e9cad60-06bd-4189-9f4d-1c2d7fd90fb3}, !- Name
  {355e7ff1-a865-4924-b420-5be8b289aad0}, !- Source Object
  3,                                      !- Outlet Port
  {51bb96ee-eb5d-485a-a57b-ab2e5b66f679}, !- Target Object
  3;                                      !- Inlet Port

OS:Connection,
  {10bfa224-ef28-4bfb-b8e3-7112b634fb1b}, !- Handle
  {6a574fd6-c6e1-4fbc-9f8d-16dde18ec89a}, !- Name
  {51bb96ee-eb5d-485a-a57b-ab2e5b66f679}, !- Source Object
  2,                                      !- Outlet Port
  {1cbb3d3f-4766-4f08-8914-63361d1975d8}, !- Target Object
  2;                                      !- Inlet Port

OS:Connection,
  {18345494-a78e-4c38-b912-a910dab59ba3}, !- Handle
  {df8a8db3-7565-45ae-8746-1524ffd76d0d}, !- Name
  {1cbb3d3f-4766-4f08-8914-63361d1975d8}, !- Source Object
  3,                                      !- Outlet Port
  {3d85bcbd-2beb-4c84-a87c-5340aafe1cc6}, !- Target Object
  18;                                     !- Inlet Port

OS:AvailabilityManagerAssignmentList,
  {6e944768-7634-4d18-8948-5ebd84b5e3f9}, !- Handle
  Plant Loop 1 AvailabilityManagerAssignmentList; !- Name

! TrackingID:#[G3mOpb]
OS:Boiler:HotWater,
  {eeac3085-c700-4d39-a6be-1c9989f4db26}, !- Handle
  Boiler Hot Water 1,                     !- Name
  ,                                       !- Fuel Type
  ,                                       !- Nominal Capacity {W}
  ,                                       !- Nominal Thermal Efficiency
  ,                                       !- Efficiency Curve Temperature Evaluation Variable
  ,                                       !- Normalized Boiler Efficiency Curve Name
  ,                                       !- Design Water Outlet Temperature {C}
  ,                                       !- Design Water Flow Rate {m3/s}
  ,                                       !- Minimum Part Load Ratio
  ,                                       !- Maximum Part Load Ratio
  ,                                       !- Optimum Part Load Ratio
  {5b40856a-f4fb-455a-947d-922fcc3cca1e}, !- Boiler Water Inlet Node Name
  {c8f92cf7-6a73-431a-a2f6-6ac90e131031}, !- Boiler Water Outlet Node Name
  99,                                     !- Water Outlet Upper Temperature Limit {C}
  ConstantFlow,                           !- Boiler Flow Mode
  0,                                      !- Parasitic Electric Load {W}
  1;                                      !- Sizing Factor

OS:Node,
  {fe4af7e1-7000-486d-b62f-b2d129e118b9}, !- Handle
  Node 12,                                !- Name
  {c8f92cf7-6a73-431a-a2f6-6ac90e131031}, !- Inlet Port
  {a7c17f90-2262-45b9-9d18-302c47c9dd3a}; !- Outlet Port

OS:Connection,
  {5b40856a-f4fb-455a-947d-922fcc3cca1e}, !- Handle
  {8d17ad92-e848-4f10-b650-07ab3ecc1d74}, !- Name
  {56dfe7c1-986e-4070-8e3c-84f0edab4c2e}, !- Source Object
  3,                                      !- Outlet Port
  {eeac3085-c700-4d39-a6be-1c9989f4db26}, !- Target Object
  12;                                     !- Inlet Port

OS:Connection,
  {c8f92cf7-6a73-431a-a2f6-6ac90e131031}, !- Handle
  {9ab7623f-aafd-45fa-960e-8920e242b09b}, !- Name
  {eeac3085-c700-4d39-a6be-1c9989f4db26}, !- Source Object
  13,                                     !- Outlet Port
  {fe4af7e1-7000-486d-b62f-b2d129e118b9}, !- Target Object
  2;                                      !- Inlet Port

! TrackingID:#[A9K3Zq]
OS:Pump:VariableSpeed,
  {8ee4c1e1-0f20-43ba-a7f5-e37be9dbd58d}, !- Handle
  Pump Variable Speed 1,                  !- Name
  {a7c17f90-2262-45b9-9d18-302c47c9dd3a}, !- Inlet Node Name
  {1558e6ba-1533-46cf-8968-412ea4887829}, !- Outlet Node Name
  ,                                       !- Rated Flow Rate {m3/s}
  ,                                       !- Rated Pump Head {Pa}
  ,                                       !- Rated Power Consumption {W}
  ,                                       !- Motor Efficiency
  ,                                       !- Fraction of Motor Inefficiencies to Fluid Stream
  ,                                       !- Coefficient 1 of the Part Load Performance Curve
  ,                                       !- Coefficient 2 of the Part Load Performance Curve
  ,                                       !- Coefficient 3 of the Part Load Performance Curve
  ,                                       !- Coefficient 4 of the Part Load Performance Curve
  ,                                       !- Minimum Flow Rate {m3/s}
  Intermittent,                           !- Pump Control Type
  ,                                       !- Pump Flow Rate Schedule Name
  ,                                       !- Pump Curve Name
  ,                                       !- Impeller Diameter {m}
  ,                                       !- VFD Control Type
  ,                                       !- Pump rpm Schedule Name
  ,                                       !- Minimum Pressure Schedule {Pa}
  ,                                       !- Maximum Pressure Schedule {Pa}
  ,                                       !- Minimum RPM Schedule {Rotations Per Minute}
  ,                                       !- Maximum RPM Schedule {Rotations Per Minute}
  ,                                       !- Zone Name
  0.5,                                    !- Skin Loss Radiative Fraction
  PowerPerFlowPerPressure,                !- Design Power Sizing Method
  348701.1,                               !- Design Electric Power per Unit Flow Rate {W/(m3/s)}
  1.282051282,                            !- Design Shaft Power per Unit Flow Rate per Unit Head {W-s/m3-Pa}
  0;                                      !- Design Minimum Flow Rate Fraction

OS:Node,
  {4a3d1583-283d-4346-ba93-a519fc43494e}, !- Handle
  Node 13,                                !- Name
  {1558e6ba-1533-46cf-8968-412ea4887829}, !- Inlet Port
  {0f74a06d-6b8c-4e58-bd98-b60e27dc0445}; !- Outlet Port

OS:Connection,
  {a7c17f90-2262-45b9-9d18-302c47c9dd3a}, !- Handle
  {c600e354-eeea-4505-af94-a6126ff58b17}, !- Name
  {fe4af7e1-7000-486d-b62f-b2d129e118b9}, !- Source Object
  3,                                      !- Outlet Port
  {8ee4c1e1-0f20-43ba-a7f5-e37be9dbd58d}, !- Target Object
  2;                                      !- Inlet Port

OS:Connection,
  {1558e6ba-1533-46cf-8968-412ea4887829}, !- Handle
  {d24153c2-cadf-4fbe-ab79-8f619fe4ee55}, !- Name
  {8ee4c1e1-0f20-43ba-a7f5-e37be9dbd58d}, !- Source Object
  3,                                      !- Outlet Port
  {4a3d1583-283d-4346-ba93-a519fc43494e}, !- Target Object
  2;                                      !- Inlet Port

OS:Connection,
  {0f74a06d-6b8c-4e58-bd98-b60e27dc0445}, !- Handle
  {8e272f44-93fa-4128-bebf-42082717fe83}, !- Name
  {4a3d1583-283d-4346-ba93-a519fc43494e}, !- Source Object
  3,                                      !- Outlet Port
  {92acac62-fbba-4371-9199-23791cd57d12}, !- Target Object
  3;                                      !- Inlet Port

! TrackingID:#[RXOAT1]
OS:Boiler:HotWater,
  {db5e55cf-dec7-4224-aa0b-10666836e72a}, !- Handle
  Boiler Hot Water 2,                     !- Name
  ,                                       !- Fuel Type
  ,                                       !- Nominal Capacity {W}
  ,                                       !- Nominal Thermal Efficiency
  ,                                       !- Efficiency Curve Temperature Evaluation Variable
  ,                                       !- Normalized Boiler Efficiency Curve Name
  ,                                       !- Design Water Outlet Temperature {C}
  ,                                       !- Design Water Flow Rate {m3/s}
  ,                                       !- Minimum Part Load Ratio
  ,                                       !- Maximum Part Load Ratio
  ,                                       !- Optimum Part Load Ratio
  {f181821e-4ec0-43b2-a229-cb201e25cf4b}, !- Boiler Water Inlet Node Name
  {4d1c19fb-1803-4793-a163-3704ba89d733}, !- Boiler Water Outlet Node Name
  99,                                     !- Water Outlet Upper Temperature Limit {C}
  ConstantFlow,                           !- Boiler Flow Mode
  0,                                      !- Parasitic Electric Load {W}
  1;                                      !- Sizing Factor

OS:Node,
  {26947cc9-9c4c-4eb6-ad57-a1764838a88c}, !- Handle
  Node 14,                                !- Name
  {a7fecd3e-e08e-49e6-8b90-e597eb86f5e1}, !- Inlet Port
  {f181821e-4ec0-43b2-a229-cb201e25cf4b}; !- Outlet Port

OS:Connection,
  {a7fecd3e-e08e-49e6-8b90-e597eb86f5e1}, !- Handle
  {d18da3ee-3370-4c15-9784-87bcd2cecfa3}, !- Name
  {44987801-9063-40fd-82c7-6ea54a0d2085}, !- Source Object
  4,                                      !- Outlet Port
  {26947cc9-9c4c-4eb6-ad57-a1764838a88c}, !- Target Object
  2;                                      !- Inlet Port

OS:Node,
  {cd972799-4deb-47d6-9142-162ca7bb2f33}, !- Handle
  Node 15,                                !- Name
  {4d1c19fb-1803-4793-a163-3704ba89d733}, !- Inlet Port
  {375a4a1f-86c6-4e3e-a489-f0b0d8b56043}; !- Outlet Port

OS:Connection,
  {f181821e-4ec0-43b2-a229-cb201e25cf4b}, !- Handle
  {47ae98fc-71e6-477e-ae42-86ddaa18d4b4}, !- Name
  {26947cc9-9c4c-4eb6-ad57-a1764838a88c}, !- Source Object
  3,                                      !- Outlet Port
  {db5e55cf-dec7-4224-aa0b-10666836e72a}, !- Target Object
  12;                                     !- Inlet Port

OS:Connection,
  {4d1c19fb-1803-4793-a163-3704ba89d733}, !- Handle
  {a21cc759-56c3-4074-9628-d1471505f57b}, !- Name
  {db5e55cf-dec7-4224-aa0b-10666836e72a}, !- Source Object