
OS:Version,
  {3f884d33-b99d-4ce9-a51f-6b012411e396}, !- Handle
  2.4.0;                                  !- Version Identifier

! TrackingID:#[BShmgF]
OS:AirLoopHVAC,
  {eed87134-6463-4f10-91b6-41981467ec6a}, !- Handle
  Air Loop HVAC 1,                        !- Name
  ,                                       !- Controller List Name
  {f7dae675-2bde-4dfc-8746-1356d50a6106}, !- Availability Schedule
  {860bc98f-9b43-401d-938b-e99756f4cb84}, !- Availability Manager List Name
  AutoSize,                               !- Design Supply Air Flow Rate {m3/s}
  ,                                       !- Branch List Name
  ,                                       !- Connector List Name
  {a1cf8b42-7626-4822-87e2-414d0e7f3826}, !- Supply Side Inlet Node Name
  {1b8a28c3-2981-414e-9e1f-ff8ec867387c}, !- Demand Side Outlet Node Name
  {93a916c8-d580-4999-8ac3-7de1a76e47b3}, !- Demand Side Inlet Node A
  {4193e4b5-e1e4-40bf-964b-750fc96a95ff}, !- Supply Side Outlet Node A
  ,                                       !- Demand Side Inlet Node B
  ,                                       !- Supply Side Outlet Node B
  ,                                       !- Return Air Bypass Flow Temperature Setpoint Schedule Name
  {3e026891-8000-4f03-ae41-6be7d6e28819}, !- Demand Mixer Name
  {18bb10b8-d877-40b4-939f-b058238a73b4}, !- Demand Splitter A Name
  ,                                       !- Demand Splitter B Name
  ;                                       !- Supply Splitter Name

OS:Node,
  {64645108-d8a6-4f3d-b0ac-07d594c99161}, !- Handle
  Node 1,                                 !- Name
  {a1cf8b42-7626-4822-87e2-414d0e7f3826}, !- Inlet Port
  {27ffc097-78c4-4c55-b23e-d605b8423bda}; !- Outlet Port

OS:Node,
  {4b93724f-0eaa-4f34-a87f-c39fac5f341c}, !- Handle
  Node 2,                                 !- Name
  {37396578-4a5d-4597-9144-8b90e811be64}, !- Inlet Port
  {4193e4b5-e1e4-40bf-964b-750fc96a95ff}; !- Outlet Port

OS:Connection,
  {a1cf8b42-7626-4822-87e2-414d0e7f3826}, !- Handle
  {0ff93a58-17e2-47d5-9d2d-601b4f87436e}, !- Name
  {eed87134-6463-4f10-91b6-41981467ec6a}, !- Source Object
  8,                                      !- Outlet Port
  {64645108-d8a6-4f3d-b0ac-07d594c99161}, !- Target Object
  2;                                      !- Inlet Port

OS:Connection,
  {4193e4b5-e1e4-40bf-964b-750fc96a95ff}, !- Handle
  {b8969734-ae44-42c1-bdb7-ede5351ef961}, !- Name
  {4b93724f-0eaa-4f34-a87f-c39fac5f341c}, !- Source Object
  3,                                      !- Outlet Port
  {eed87134-6463-4f10-91b6-41981467ec6a}, !- Target Object
  11;                                     !- Inlet Port

OS:Node,
  {845a7f54-88c7-4b91-a636-e90921c0193d}, !- Handle
  Node 3,                                 !- Name
  {93a916c8-d580-4999-8ac3-7de1a76e47b3}, !- Inlet Port
  {48a2f8c5-b938-4268-8eae-0dc03a382620}; !- Outlet Port

OS:Node,
  {a709f11c-b386-4edb-a921-f6f4cd1e594d}, !- Handle
  Node 4,                                 !- Name
  {7767cc00-6067-48a3-bc3f-05f57ae6c433}, !- Inlet Port
  {1b8a28c3-2981-414e-9e1f-ff8ec867387c}; !- Outlet Port

OS:Node,
  {5a9a0f75-1d1b-473c-b502-d979411b0c5f}, !- Handle
  Node 5,                                 !- Name
  {3256b578-4658-45c2-8978-d05845241bf1}, !- Inlet Port
  {c294b4a6-8c7e-417e-94a1-c1866ea2cb52}; !- Outlet Port

OS:Connection,
  {93a916c8-d580-4999-8ac3-7de1a76e47b3}, !- Handle
  {7e1bc374-7dda-42f7-8872-577634c8f09b}, !- Name
  {eed87134-6463-4f10-91b6-41981467ec6a}, !- Source Object
  10,                                     !- Outlet Port
  {845a7f54-88c7-4b91-a636-e90921c0193d}, !- Target Object
  2;                                      !- Inlet Port

OS:Connection,
  {1b8a28c3-2981-414e-9e1f-ff8ec867387c}, !- Handle
  {06c9c885-d458-4e09-bb11-5bc8774e112c}, !- Name
  {a709f11c-b386-4edb-a921-f6f4cd1e594d}, !- Source Object
  3,                                      !- Outlet Port
  {eed87134-6463-4f10-91b6-41981467ec6a}, !- Target Object
  9;                                      !- Inlet Port

OS:AirLoopHVAC:ZoneSplitter,
  {18bb10b8-d877-40b4-939f-b058238a73b4}, !- Handle
  Air Loop HVAC Zone Splitter 1,          !- Name
  {48a2f8c5-b938-4268-8eae-0dc03a382620}, !- Inlet Node Name
  {58cfd36e-7b9f-47c3-b522-177652c7c29e}, !- Outlet Node Name 1
  {35b979cb-03ff-4b29-9347-09c421baed9d}; !- Outlet Node Name 2

OS:AirLoopHVAC:ZoneMixer,
  {3e026891-8000-4f03-ae41-6be7d6e28819}, !- Handle
  Air Loop HVAC Zone Mixer 1,             !- Name
  {7767cc00-6067-48a3-bc3f-05f57ae6c433}, !- Outlet Node Name
  {28fe602c-e2aa-4942-9d91-d0024c995657}, !- Inlet Node Name 1
  {de7da405-5339-40d6-ad80-0b8a42fce703}; !- Inlet Node Name 2

OS:Connection,
  {48a2f8c5-b938-4268-8eae-0dc03a382620}, !- Handle
  {4253bd6a-46d4-4aa9-bc55-45c254a1b481}, !- Name
  {845a7f54-88c7-4b91-a636-e90921c0193d}, !- Source Object
  3,                                      !- Outlet Port
  {18bb10b8-d877-40b4-939f-b058238a73b4}, !- Target Object
  2;                                      !- Inlet Port

OS:Connection,
  {7767cc00-6067-48a3-bc3f-05f57ae6c433}, !- Handle
  {2c617914-68f9-411f-ad91-0a6b9a1b36f7}, !- Name
  {3e026891-8000-4f03-ae41-6be7d6e28819}, !- Source Object
  2,                                      !- Outlet Port
  {a709f11c-b386-4edb-a921-f6f4cd1e594d}, !- Target Object
  2;                                      !- Inlet Port

OS:Sizing:System,
  {2211ecc6-208d-4b45-9ddd-ec1197b47c21}, !- Handle
  {eed87134-6463-4f10-91b6-41981467ec6a}, !- AirLoop Name
  Sensible,                               !- Type of Load to Size On
  Autosize,                               !- Design Outdoor Air Flow Rate {m3/s}
  0.3,                                    !- Minimum System Air Flow Ratio
  7,                                      !- Preheat Design Temperature {C}
  0.008,                                  !- Preheat Design Humidity Ratio {kg-H2O/kg-Air}
  12.8,                                   !- Precool Design Temperature {C}
  0.008,                                  !- Precool Design Humidity Ratio {kg-H2O/kg-Air}
  12.8,                                   !- Central Cooling Design Supply Air Temperature {C}
  16.7,                                   !- Central Heating Design Supply Air Temperature {C}
  NonCoincident,                          !- Sizing Option
  Yes,                                    !- 100% Outdoor Air in Cooling
  Yes,                                    !- 100% Outdoor Air in Heating
  0.0085,                                 !- Central Cooling Design Supply Air Humidity Ratio {kg-H2O/kg-Air}
  0.008,                                  !- Central Heating Design Supply Air Humidity Ratio {kg-H2O/kg-Air}
  DesignDay,                              !- Cooling Design Air Flow Method
  0,                                      !- Cooling Design Air Flow Rate {m3/s}
  DesignDay,                              !- Heating Design Air Flow Method
  0,                                      !- Heating Design Air Flow Rate {m3/s}
  ZoneSum,                                !- System Outdoor Air Method
  1,                                      !- Zone Maximum Outdoor Air Fraction {dimensionless}
  0.0099676501,                           !- Cooling Supply Air Flow Rate Per Floor Area {m3/s-m2}
  1,                                      !- Cooling Fraction of Autosized Cooling Supply Air Flow Rate
  3.9475456e-005,                         !- Cooling Supply Air Flow Rate Per Unit Cooling Capacity {m3/s-W}
  0.0099676501,                           !- Heating Supply Air Flow Rate Per Floor Area {m3/s-m2}
  1,                                      !- Heating Fraction of Autosized Heating Supply Air Flow Rate
  1,                                      !- Heating Fraction of Autosized Cooling Supply Air Flow Rate
  3.1588213e-005,                         !- Heating Supply Air Flow Rate Per Unit Heating Capacity {m3/s-W}
  CoolingDesignCapacity,                  !- Cooling Design Capacity Method
  autosize,                               !- Cooling Design Capacity {W}
  234.7,                                  !- Cooling Design Capacity Per Floor Area {W/m2}
  1,                                      !- Fraction of Autosized Cooling Design Capacity
  HeatingDesignCapacity,                  !- Heating Design Capacity Method
  autosize,                               !- Heating Design Capacity {W}
  157,                                    !- Heating Design Capacity Per Floor Area {W/m2}
  1,                                      !- Fraction of Autosized Heating Design Capacity
  OnOff;                                  !- Central Cooling Capacity Control Method

OS:Schedule:Constant,
  {f7dae675-2bde-4dfc-8746-1356d50a6106}, !- Handle
  Always On Discrete,                     !- Name
  {d43c68ca-1ed6-4ded-8b46-860c291974b8}, !- Schedule Type Limits Name
  1;                                      !- Value

OS:ScheduleTypeLimits,
  {d43c68ca-1ed6-4ded-8b46-860c291974b8}, !- Handle
  OnOff,                                  !- Name
  0,                                      !- Lower Limit Value
  1,                                      !- Upper Limit Value
  Discrete,                               !- Numeric Type
  Availability;                           !- Unit Type

OS:AvailabilityManagerAssignmentList,
  {860bc98f-9b43-401d-938b-e99756f4cb84}, !- Handle
  Air Loop HVAC 1 AvailabilityManagerAssignmentList; !- Name

! TrackingID:#[sL5tPJ]
OS:Coil:Heating:Water,
  {c3be0241-4f23-4f09-92c9-9b562beb5eee}, !- Handle
  Coil Heating Water 1,                   !- Name
  {f7dae675-2bde-4dfc-8746-1356d50a6106}, !- Availability Schedule Name
  ,                                       !- U-Factor Times Area Value {W/K}
  ,                                       !- Maximum Water Flow Rate {m3/s}
  {13482521-a031-40cf-8ce0-6a7554e06fa5}, !- Water Inlet Node Name
  {7512e662-a124-4fc0-aa46-29bbdc29fc23}, !- Water Outlet Node Name
  {27ffc097-78c4-4c55-b23e-d605b8423bda}, !- Air Inlet Node Name
  {968236c0-7a06-47ad-b42e-d5eb99a94651}, !- Air Outlet Node Name
  ,                                       !- Performance Input Method
  ,                                       !- Rated Capacity {W}
  ,                                       !- Rated Inlet Water Temperature {C}
  ,                                       !- Rated Inlet Air Temperature {C}
  ,                                       !- Rated Outlet Water Temperature {C}
  ,                                       !- Rated Outlet Air Temperature {C}
  ;                                       !- Rated Ratio for Air and Water Convection

OS:Connection,
  {27ffc097-78c4-4c55-b23e-d605b8423bda}, !- Handle
  {205845ae-29d1-410b-aa49-330f8ede9060}, !- Name
  {64645108-d8a6-4f3d-b0ac-07d594c99161}, !- Source Object
  3,                                      !- Outlet Port
  {c3be0241-4f23-4f09-92c9-9b562beb5eee}, !- Target Object
  7;                                      !- Inlet Port

! TrackingID:#[65Dlz1]
OS:Fan:VariableVolume,
  {effaa925-c3bc-4187-96e8-ae57379ba55c}, !- Handle
  Fan Variable Volume 1,                  !- Name
  {f7dae675-2bde-4dfc-8746-1356d50a6106}, !- Availability Schedule Name
  0.6045,                                 !- Fan Efficiency
  1017.592,                               !- Pressure Rise {Pa}
  Autosize,                               !- Maximum Flow Rate {m3/s}
  FixedFlowRate,                          !- Fan Power Minimum Flow Rate Input Method
  0,                                      !- Fan Power Minimum Flow Fraction
  0,                                      !- Fan Power Minimum Air Flow Rate {m3/s}
  0.93,                                   !- Motor Efficiency
  1,                                      !- Motor In Airstream Fraction
  0.040759894,                            !- Fan Power Coefficient 1
  0.08804497,                             !- Fan Power Coefficient 2
  -0.07292612,                            !- Fan Power Coefficient 3
  0.943739823,                            !- Fan Power Coefficient 4
  0,                                      !- Fan Power Coefficient 5
  {3196977a-0b79-42c3-ba5f-af6d94c08093}, !- Air Inlet Node Name
  {37396578-4a5d-4597-9144-8b90e811be64}, !- Air Outlet Node Name
  ;                                       !- End-Use Subcategory

OS:Node,
  {e062bd3e-0765-42d2-a77e-fc8711ed8bd6}, !- Handle
  Node 6,                                 !- Name
  {968236c0-7a06-47ad-b42e-d5eb99a94651}, !- Inlet Port
  {3196977a-0b79-42c3-ba5f-af6d94c08093}; !- Outlet Port

OS:Connection,
  {968236c0-7a06-47ad-b42e-d5eb99a94651}, !- Handle
  {ba7c9bbb-3648-4b18-9aae-ee483d5061b0}, !- Name
  {c3be0241-4f23-4f09-92c9-9b562beb5eee}, !- Source Object
  8,                                      !- Outlet Port
  {e062bd3e-0765-42d2-a77e-fc8711ed8bd6}, !- Target Object
  2;                                      !- Inlet Port

OS:Connection,
  {3196977a-0b79-42c3-ba5f-af6d94c08093}, !- Handle
  {7923fcd8-45f5-45d2-a665-05c2a96997f1}, !- Name
  {e062bd3e-0765-42d2-a77e-fc8711ed8bd6}, !- Source Object
  3,                                      !- Outlet Port
  {effaa925-c3bc-4187-96e8-ae57379ba55c}, !- Target Object
  16;                                     !- Inlet Port

OS:Connection,
  {37396578-4a5d-4597-9144-8b90e811be64}, !- Handle
  {49de2a5d-eb0c-4340-b30b-f5523c370c4f}, !- Name
  {effaa925-c3bc-4187-96e8-ae57379ba55c}, !- Source Object
  17,                                     !- Outlet Port
  {4b93724f-0eaa-4f34-a87f-c39fac5f341c}, !- Target Object
  2;                                      !- Inlet Port

! TrackingID:#[dTtDqQ]
OS:ThermalZone,
  {19dfe55c-e99a-44f1-955b-60c31736dc4c}, !- Handle
  Thermal Zone 1,                         !- Name
  ,                                       !- Multiplier
  ,                                       !- Ceiling Height {m}
  ,                                       !- Volume {m3}
  ,                                       !- Floor Area {m2}
  ,                                       !- Zone Inside Convection Algorithm
  ,                                       !- Zone Outside Convection Algorithm
  ,                                       !- Zone Conditioning Equipment List Name
  {eac9060a-93a5-45b9-bf05-a83bf8d26b0d}, !- Zone Air Inlet Port List
  {bec7f367-459e-4981-ab51-fe9338474158}, !- Zone Air Exhaust Port List
  {ca912ebf-62d8-4fcb-80ea-ff44581f5bc0}, !- Zone Air Node Name
  {aabca4dd-507b-4b63-858c-1c9d810568dd}, !- Zone Return Air Node Name
  ,                                       !- Primary Daylighting Control Name
  ,                                       !- Fraction of Zone Controlled by Primary Daylighting Control
  ,                                       !- Secondary Daylighting Control Name
  ,                                       !- Fraction of Zone Controlled by Secondary Daylighting Control
  ,                                       !- Illuminance Map Name
  ,                                       !- Group Rendering Name
  ,                                       !- Thermostat Name
  No;                                     !- Use Ideal Air Loads

OS:Node,
  {6c24d770-df9b-4ed2-88be-095eb6d070ea}, !- Handle
  Node 7,                                 !- Name
  {ca912ebf-62d8-4fcb-80ea-ff44581f5bc0}, !- Inlet Port
  ;                                       !- Outlet Port

OS:Connection,
  {ca912ebf-62d8-4fcb-80ea-ff44581f5bc0}, !- Handle
  {f4568cf3-bb11-4e32-aad1-acd37cdaa670}, !- Name
  {19dfe55c-e99a-44f1-955b-60c31736dc4c}, !- Source Object
  11,                                     !- Outlet Port
  {6c24d770-df9b-4ed2-88be-095eb6d070ea}, !- Target Object
  2;                                      !- Inlet Port

OS:PortList,
  {eac9060a-93a5-45b9-bf05-a83bf8d26b0d}, !- Handle
  {98c3829a-5d4e-4933-932c-2419e7a67b03}, !- Name
  {19dfe55c-e99a-44f1-955b-60c31736dc4c}, !- HVAC Component
  {c294b4a6-8c7e-417e-94a1-c1866ea2cb52}; !- Port 1

OS:PortList,
  {bec7f367-459e-4981-ab51-fe9338474158}, !- Handle
  {3fd858b6-7243-4e7d-aa8a-edaf6354cfe8}, !- Name
  {19dfe55c-e99a-44f1-955b-60c31736dc4c}; !- HVAC Component

OS:Sizing:Zone,
  {67342ecd-d336-4af5-a2a0-3c7967cfcfe9}, !- Handle
  {19dfe55c-e99a-44f1-955b-60c31736dc4c}, !- Zone or ZoneList Name
  SupplyAirTemperature,                   !- Zone Cooling Design Supply Air Temperature Input Method
  14,                                     !- Zone Cooling Design Supply Air Temperature {C}
  11.11,                                  !- Zone Cooling Design Supply Air Temperature Difference {deltaC}
  SupplyAirTemperature,                   !- Zone Heating Design Supply Air Temperature Input Method
  40,                                     !- Zone Heating Design Supply Air Temperature {C}
  11.11,                                  !- Zone Heating Design Supply Air Temperature Difference {deltaC}
  0.0085,                                 !- Zone Cooling Design Supply Air Humidity Ratio {kg-H2O/kg-air}
  0.008,                                  !- Zone Heating Design Supply Air Humidity Ratio {kg-H2O/kg-air}
  ,                                       !- Zone Heating Sizing Factor
  ,                                       !- Zone Cooling Sizing Factor
  DesignDay,                              !- Cooling Design Air Flow Method
  ,                                       !- Cooling Design Air Flow Rate {m3/s}
  ,                                       !- Cooling Minimum Air Flow per Zone Floor Area {m3/s-m2}
  ,                                       !- Cooling Minimum Air Flow {m3/s}
  ,                                       !- Cooling Minimum Air Flow Fraction
  DesignDay,                              !- Heating Design Air Flow Method
  ,                                       !- Heating Design Air Flow Rate {m3/s}
  ,                                       !- Heating Maximum Air Flow per Zone Floor Area {m3/s-m2}
  ,                                       !- Heating Maximum Air Flow {m3/s}
  ,                                       !- Heating Maximum Air Flow Fraction
  ,                                       !- Design Zone Air Distribution Effectiveness in Cooling Mode
  ,                                       !- Design Zone Air Distribution Effectiveness in Heating Mode
  No,                                     !- Account for Dedicated Outdoor Air System
  NeutralSupplyAir,                       !- Dedicated Outdoor Air System Control Strategy
  autosize,                               !- Dedicated Outdoor Air Low Setpoint Temperature for Design {C}
  autosize;                               !- Dedicated Outdoor Air High Setpoint Temperature for Design {C}

OS:ZoneHVAC:EquipmentList,
  {3a6bc480-3425-4f3a-95b7-9c1cdc00545b}, !- Handle
  Zone HVAC Equipment List 1,             !- Name
  {19dfe55c-e99a-44f1-955b-60c31736dc4c}, !- Thermal Zone
  {fee4517a-a98c-4c73-b6f1-140d293a0240}, !- Zone Equipment 1
  1,                                      !- Zone Equipment Cooling Sequence 1
  1,                                      !- Zone Equipment Heating or No-Load Sequence 1
  {61cad500-4d86-46b9-8491-03fbb81984f7}, !- Zone Equipment 2
  2,                                      !- Zone Equipment Cooling Sequence 2
  2;                                      !- Zone Equipment Heating or No-Load Sequence 2

! TrackingID:#[9twqOk]
OS:Sizing:Zone,
  {1d037cdb-7f81-408f-b28b-a52f8543c799}, !- Handle
  {19dfe55c-e99a-44f1-955b-60c31736dc4c}, !- Zone or ZoneList Name
  SupplyAirTemperature,                   !- Zone Cooling Design Supply Air Temperature Input Method
  14,                                     !- Zone Cooling Design Supply Air Temperature {C}
  11.11,                                  !- Zone Cooling Design Supply Air Temperature Difference {deltaC}
  SupplyAirTemperature,                   !- Zone Heating Design Supply Air Temperature Input Method
  40,                                     !- Zone Heating Design Supply Air Temperature {C}
  11.11,                                  !- Zone Heating Design Supply Air Temperature Difference {deltaC}
  0.0085,                                 !- Zone Cooling Design Supply Air Humidity Ratio {kg-H2O/kg-air}
  0.008,                                  !- Zone Heating Design Supply Air Humidity Ratio {kg-H2O/kg-air}
  ,                                       !- Zone Heating Sizing Factor
  ,                                       !- Zone Cooling Sizing Factor
  DesignDay,                              !- Cooling Design Air Flow Method
  ,                                       !- Cooling Design Air Flow Rate {m3/s}
  ,                                       !- Cooling Minimum Air Flow per Zone Floor Area {m3/s-m2}
  ,                                       !- Cooling Minimum Air Flow {m3/s}
  ,                                       !- Cooling Minimum Air Flow Fraction
  DesignDay,                              !- Heating Design Air Flow Method
  ,                                       !- Heating Design Air Flow Rate {m3/s}
  ,                                       !- Heating Maximum Air Flow per Zone Floor Area {m3/s-m2}
  ,                                       !- Heating Maximum Air Flow {m3/s}
  ,                                       !- Heating Maximum Air Flow Fraction
  ,                                       !- Design Zone Air Distribution Effectiveness in Cooling Mode
  ,                                       !- Design Zone Air Distribution Effectiveness in Heating Mode
  No,                                     !- Account for Dedicated Outdoor Air System
  NeutralSupplyAir,                       !- Dedicated Outdoor Air System Control Strategy
  autosize,                               !- Dedicated Outdoor Air Low Setpoint Temperature for Design {C}
  autosize;                               !- Dedicated Outdoor Air High Setpoint Temperature for Design {C}

! TrackingID:#[ESkyU8]
OS:AirTerminal:SingleDuct:Uncontrolled,
  {fee4517a-a98c-4c73-b6f1-140d293a0240}, !- Handle
  Air Terminal Single Duct Uncontrolled 1, !- Name
  {f7dae675-2bde-4dfc-8746-1356d50a6106}, !- Availability Schedule Name
  ,                                       !- Inlet Air Node Name
  ,                                       !- Zone Supply Air Node Name
  AutoSize;                               !- Maximum Air Flow Rate {m3/s}

! TrackingID:#[ESkyU8]
OS:AirTerminal:SingleDuct:Uncontrolled,
  {61cad500-4d86-46b9-8491-03fbb81984f7}, !- Handle
  Air Terminal Single Duct Uncontrolled 2, !- Name
  {f7dae675-2bde-4dfc-8746-1356d50a6106}, !- Availability Schedule Name
  {58cfd36e-7b9f-47c3-b522-177652c7c29e}, !- Inlet Air Node Name
  {3256b578-4658-45c2-8978-d05845241bf1}, !- Zone Supply Air Node Name
  AutoSize;                               !- Maximum Air Flow Rate {m3/s}

OS:Node,
  {2fe3a197-a1c5-42e1-9fbd-4741415137e6}, !- Handle
  Node 8,                                 !- Name
  {aabca4dd-507b-4b63-858c-1c9d810568dd}, !- Inlet Port
  {28fe602c-e2aa-4942-9d91-d0024c995657}; !- Outlet Port

OS:Connection,
  {c294b4a6-8c7e-417e-94a1-c1866ea2cb52}, !- Handle
  {63a66a49-dc16-4ffd-b207-817c8cf21090}, !- Name
  {5a9a0f75-1d1b-473c-b502-d979411b0c5f}, !- Source Object
  3,                                      !- Outlet Port
  {eac9060a-93a5-45b9-bf05-a83bf8d26b0d}, !- Target Object
  3;                                      !- Inlet Port

OS:Connection,
  {aabca4dd-507b-4b63-858c-1c9d810568dd}, !- Handle
  {e2aa9ddb-1c3e-4d90-9b2c-fdf3514a81ad}, !- Name
  {19dfe55c-e99a-44f1-955b-60c31736dc4c}, !- Source Object
  12,                                     !- Outlet Port
  {2fe3a197-a1c5-42e1-9fbd-4741415137e6}, !- Target Object
  2;                                      !- Inlet Port

OS:Connection,
  {28fe602c-e2aa-4942-9d91-d0024c995657}, !- Handle
  {b4fba25f-5693-4cf2-a39a-e14aa0c5162c}, !- Name
  {2fe3a197-a1c5-42e1-9fbd-4741415137e6}, !- Source Object
  3,                                      !- Outlet Port
  {3e026891-8000-4f03-ae41-6be7d6e28819}, !- Target Object
  3;                                      !- Inlet Port

OS:Connection,
  {58cfd36e-7b9f-47c3-b522-177652c7c29e}, !- Handle
  {d3d649c2-e06b-499a-9077-a492379aa8b7}, !- Name
  {18bb10b8-d877-40b4-939f-b058238a73b4}, !- Source Object
  3,                                      !- Outlet Port
  {61cad500-4d86-46b9-8491-03fbb81984f7}, !- Target Object
  3;                                      !- Inlet Port

OS:Connection,
  {3256b578-4658-45c2-8978-d05845241bf1}, !- Handle
  {6b55be32-2fe6-48ff-8242-4e725878ceb6}, !- Name
  {61cad500-4d86-46b9-8491-03fbb81984f7}, !- Source Object
  4,                                      !- Outlet Port
  {5a9a0f75-1d1b-473c-b502-d979411b0c5f}, !- Target Object
  2;                                      !- Inlet Port

! TrackingID:#[mk5yrz]
OS:ThermalZone,
  {9f699b1d-4ec6-43df-b923-a28f2fd90796}, !- Handle
  Thermal Zone 2,                         !- Name
  ,                                       !- Multiplier
  ,                                       !- Ceiling Height {m}
  ,                                       !- Volume {m3}
  ,                                       !- Floor Area {m2}
  ,                                       !- Zone Inside Convection Algorithm
  ,                                       !- Zone Outside Convection Algorithm
  ,                                       !- Zone Conditioning Equipment List Name
  {84a84068-cdb8-4431-ba05-6018af2d9ff6}, !- Zone Air Inlet Port List
  {bd1c8e20-fa16-431e-a204-0cf23699d4d3}, !- Zone Air Exhaust Port List
  {7095d94c-3c0d-41bc-bd3b-c81f10066533}, !- Zone Air Node Name
  {ed432544-3e75-40d6-991b-f11487b84fbe}, !- Zone Return Air Node Name
  ,                                       !- Primary Daylighting Control Name
  ,                                       !- Fraction of Zone Controlled by Primary Daylighting Control
  ,                                       !- Secondary Daylighting Control Name
  ,                                       !- Fraction of Zone Controlled by Secondary Daylighting Control
  ,                                       !- Illuminance Map Name
  ,                                       !- Group Rendering Name
  ,                                       !- Thermostat Name
  No;                                     !- Use Ideal Air Loads

OS:Node,
  {c85a682d-2355-4268-88cb-093bd30516df}, !- Handle
  Node 9,                                 !- Name
  {7095d94c-3c0d-41bc-bd3b-c81f10066533}, !- Inlet Port
  ;                                       !- Outlet Port

OS:Connection,
  {7095d94c-3c0d-41bc-bd3b-c81f10066533}, !- Handle
  {9b025865-f043-48f3-b5c5-c9e015748bf9}, !- Name
  {9f699b1d-4ec6-43df-b923-a28f2fd90796}, !- Source Object
  11,                                     !- Outlet Port
  {c85a682d-2355-4268-88cb-093bd30516df}, !- Target Object
  2;                                      !- Inlet Port

OS:PortList,
  {84a84068-cdb8-4431-ba05-6018af2d9ff6}, !- Handle
  {7929916b-88d0-41a2-9586-2e3878e57219}, !- Name
  {9f699b1d-4ec6-43df-b923-a28f2fd90796}, !- HVAC Component
  {1ef21f67-871e-4ce9-96f1-bc691f345960}; !- Port 1

OS:PortList,
  {bd1c8e20-fa16-431e-a204-0cf23699d4d3}, !- Handle
  {cefed423-834d-4b65-aaa4-50c48a1692bb}, !- Name
  {9f699b1d-4ec6-43df-b923-a28f2fd90796}; !- HVAC Component

OS:Sizing:Zone,
  {ff6832dc-7ae5-4beb-9cc2-d9f700248395}, !- Handle
  {9f699b1d-4ec6-43df-b923-a28f2fd90796}, !- Zone or ZoneList Name
  SupplyAirTemperature,                   !- Zone Cooling Design Supply Air Temperature Input Method
  14,                                     !- Zone Cooling Design Supply Air Temperature {C}
  11.11,                                  !- Zone Cooling Design Supply Air Temperature Difference {deltaC}
  SupplyAirTemperature,                   !- Zone Heating Design Supply Air Temperature Input Method
  40,                                     !- Zone Heating Design Supply Air Temperature {C}
  11.11,                                  !- Zone Heating Design Supply Air Temperature Difference {deltaC}
  0.0085,                                 !- Zone Cooling Design Supply Air Humidity Ratio {kg-H2O/kg-air}
  0.008,                                  !- Zone Heating Design Supply Air Humidity Ratio {kg-H2O/kg-air}
  ,                                       !- Zone Heating Sizing Factor
  ,                                       !- Zone Cooling Sizing Factor
  DesignDay,                              !- Cooling Design Air Flow Method
  ,                                       !- Cooling Design Air Flow Rate {m3/s}
  ,                                       !- Cooling Minimum Air Flow per Zone Floor Area {m3/s-m2}
  ,                                       !- Cooling Minimum Air Flow {m3/s}
  ,                                       !- Cooling Minimum Air Flow Fraction
  DesignDay,                              !- Heating Design Air Flow Method
  ,                                       !- Heating Design Air Flow Rate {m3/s}
  ,                                       !- Heating Maximum Air Flow per Zone Floor Area {m3/s-m2}
  ,                                       !- Heating Maximum Air Flow {m3/s}
  ,                                       !- Heating Maximum Air Flow Fraction
  ,                                       !- Design Zone Air Distribution Effectiveness in Cooling Mode
  ,                                       !- Design Zone Air Distribution Effectiveness in Heating Mode
  No,                                     !- Account for Dedicated Outdoor Air System
  NeutralSupplyAir,                       !- Dedicated Outdoor Air System Control Strategy
  autosize,                               !- Dedicated Outdoor Air Low Setpoint Temperature for Design {C}
  autosize;                               !- Dedicated Outdoor Air High Setpoint Temperature for Design {C}

OS:ZoneHVAC:EquipmentList,
  {07447e89-69d4-4aaf-a184-f39a9088befa}, !- Handle
  Zone HVAC Equipment List 2,             !- Name
  {9f699b1d-4ec6-43df-b923-a28f2fd90796}, !- Thermal Zone
  {5a845f6d-4c58-422b-bb65-13c6cf2c379b}, !- Zone Equipment 1
  1,                                      !- Zone Equipment Cooling Sequence 1