
OS:Version,
  {c2a43771-6998-4ea7-ae6f-a6cb7e74a3ba}, !- Handle
  2.4.0;                                  !- Version Identifier

OS:AirLoopHVAC,
  {3d14b6d8-63ff-44fc-890c-5a699afd5f5f}, !- Handle
  Air Loop HVAC 1,                        !- Name
  ,                                       !- Controller List Name
  {54e1bb83-f500-49e5-b313-0c5ad9045f21}, !- Availability Schedule
  {96559c2c-b857-4669-bf37-9522853330d6}, !- Availability Manager List Name
  AutoSize,                               !- Design Supply Air Flow Rate {m3/s}
  ,                                       !- Branch List Name
  ,                                       !- Connector List Name
  {df79b63e-180b-4c26-a696-3a7ffd7d82d1}, !- Supply Side Inlet Node Name
  {1dc86dc7-8b2f-45c8-a907-9371b5a829d7}, !- Demand Side Outlet Node Name
  {1ac12d3f-44be-4c4d-a300-60cd02e3b0c6}, !- Demand Side Inlet Node A
  {e19b33c9-0a43-4c40-8ed0-6dae0f5933f2}, !- Supply Side Outlet Node A
  ,                                       !- Demand Side Inlet Node B
  ,                                       !- Supply Side Outlet Node B
  ,                                       !- Return Air Bypass Flow Temperature Setpoint Schedule Name
  {24e62f99-7980-45f5-8390-45862d2a63f0}, !- Demand Mixer Name
  {35d5236b-ace2-45c2-909b-3c8571795961}, !- Demand Splitter A Name
  ,                                       !- Demand Splitter B Name
  ;                                       !- Supply Splitter Name

OS:Node,
  {6bf619bc-4e99-4c5d-8f9a-d6a6103349f6}, !- Handle
  Node 1,                                 !- Name
  {df79b63e-180b-4c26-a696-3a7ffd7d82d1}, !- Inlet Port
  {4ccfd7b3-01bb-4b32-b509-0cd06a769365}; !- Outlet Port

OS:Node,
  {a6f4d95e-a06e-4fba-afc3-8b57300462cf}, !- Handle
  Node 2,                                 !- Name
  {4ec762f8-30cc-4315-9740-c333b96a60df}, !- Inlet Port
  {e19b33c9-0a43-4c40-8ed0-6dae0f5933f2}; !- Outlet Port

OS:Connection,
  {df79b63e-180b-4c26-a696-3a7ffd7d82d1}, !- Handle
  {d50d259b-eb8a-4c31-b9ec-29a7f9206b0d}, !- Name
  {3d14b6d8-63ff-44fc-890c-5a699afd5f5f}, !- Source Object
  8,                                      !- Outlet Port
  {6bf619bc-4e99-4c5d-8f9a-d6a6103349f6}, !- Target Object
  2;                                      !- Inlet Port

OS:Connection,
  {e19b33c9-0a43-4c40-8ed0-6dae0f5933f2}, !- Handle
  {4ad368a2-f13c-467f-bd21-2c5f3478ad91}, !- Name
  {a6f4d95e-a06e-4fba-afc3-8b57300462cf}, !- Source Object
  3,                                      !- Outlet Port
  {3d14b6d8-63ff-44fc-890c-5a699afd5f5f}, !- Target Object
  11;                                     !- Inlet Port

OS:Node,
  {99ec025b-f312-438a-970d-17a5998449c1}, !- Handle
  Node 3,                                 !- Name
  {1ac12d3f-44be-4c4d-a300-60cd02e3b0c6}, !- Inlet Port
  {25818690-4ed3-417e-a429-b484da75c3a2}; !- Outlet Port

OS:Node,
  {a8315e91-0254-4f06-b16d-32e2a1c353a7}, !- Handle
  Node 4,                                 !- Name
  {fea87e7c-3fb4-44f1-83d4-32c6b2dd7b25}, !- Inlet Port
  {1dc86dc7-8b2f-45c8-a907-9371b5a829d7}; !- Outlet Port

OS:Node,
  {78c82193-46cd-4694-82c7-ff5dbcf66002}, !- Handle
  Node 5,                                 !- Name
  {ae8f28b2-2f7c-47e6-9f41-4995a5b31344}, !- Inlet Port
  {5860d6d3-6d3f-4095-a4fc-d2e9b2acd5f8}; !- Outlet Port

OS:Connection,
  {1ac12d3f-44be-4c4d-a300-60cd02e3b0c6}, !- Handle
  {444f13ab-34ed-473e-ba85-9d684646e130}, !- Name
  {3d14b6d8-63ff-44fc-890c-5a699afd5f5f}, !- Source Object
  10,                                     !- Outlet Port
  {99ec025b-f312-438a-970d-17a5998449c1}, !- Target Object
  2;                                      !- Inlet Port

OS:Connection,
  {1dc86dc7-8b2f-45c8-a907-9371b5a829d7}, !- Handle
  {dd9468dd-224c-4072-9653-fbc085832bb9}, !- Name
  {a8315e91-0254-4f06-b16d-32e2a1c353a7}, !- Source Object
  3,                                      !- Outlet Port
  {3d14b6d8-63ff-44fc-890c-5a699afd5f5f}, !- Target Object
  9;                                      !- Inlet Port

OS:AirLoopHVAC:ZoneSplitter,
  {35d5236b-ace2-45c2-909b-3c8571795961}, !- Handle
  Air Loop HVAC Zone Splitter 1,          !- Name
  {25818690-4ed3-417e-a429-b484da75c3a2}, !- Inlet Node Name
  {ae8f28b2-2f7c-47e6-9f41-4995a5b31344}; !- Outlet Node Name 1

OS:AirLoopHVAC:ZoneMixer,
  {24e62f99-7980-45f5-8390-45862d2a63f0}, !- Handle
  Air Loop HVAC Zone Mixer 1,             !- Name
  {fea87e7c-3fb4-44f1-83d4-32c6b2dd7b25}, !- Outlet Node Name
  {5860d6d3-6d3f-4095-a4fc-d2e9b2acd5f8}; !- Inlet Node Name 1

OS:Connection,
  {25818690-4ed3-417e-a429-b484da75c3a2}, !- Handle
  {731b986b-cdf0-48c6-940a-318e1fd94637}, !- Name
  {99ec025b-f312-438a-970d-17a5998449c1}, !- Source Object
  3,                                      !- Outlet Port
  {35d5236b-ace2-45c2-909b-3c8571795961}, !- Target Object
  2;                                      !- Inlet Port

OS:Connection,
  {ae8f28b2-2f7c-47e6-9f41-4995a5b31344}, !- Handle
  {ca2237c2-8e7c-4013-bc11-c89e5e1ea5de}, !- Name
  {35d5236b-ace2-45c2-909b-3c8571795961}, !- Source Object
  3,                                      !- Outlet Port
  {78c82193-46cd-4694-82c7-ff5dbcf66002}, !- Target Object
  2;                                      !- Inlet Port

OS:Connection,
  {5860d6d3-6d3f-4095-a4fc-d2e9b2acd5f8}, !- Handle
  {1aca1f0a-f616-4b89-a27e-84a671947b8f}, !- Name
  {78c82193-46cd-4694-82c7-ff5dbcf66002}, !- Source Object
  3,                                      !- Outlet Port
  {24e62f99-7980-45f5-8390-45862d2a63f0}, !- Target Object
  3;                                      !- Inlet Port

OS:Connection,
  {fea87e7c-3fb4-44f1-83d4-32c6b2dd7b25}, !- Handle
  {85b45c7e-0136-4f42-ab7b-20e20f08b1cd}, !- Name
  {24e62f99-7980-45f5-8390-45862d2a63f0}, !- Source Object
  2,                                      !- Outlet Port
  {a8315e91-0254-4f06-b16d-32e2a1c353a7}, !- Target Object
  2;                                      !- Inlet Port

OS:Sizing:System,
  {a88ef8f5-e1c4-45a5-96b2-2a2683b3e3ea}, !- Handle
  {3d14b6d8-63ff-44fc-890c-5a699afd5f5f}, !- AirLoop Name
  Sensible,                               !- Type of Load to Size On
  Autosize,                               !- Design Outdoor Air Flow Rate {m3/s}
  0.3,                                    !- Minimum System Air Flow Ratio
  7,                                      !- Preheat Design Temperature {C}
  0.008,                                  !- Preheat Design Humidity Ratio {kg-H2O/kg-Air}
  12.8,                                   !- Precool Design Temperature {C}
  0.008,                                  !- Precool Design Humidity Ratio {kg-H2O/kg-Air}
  12.8,                                   !- Central Cooling Design Supply Air Temperature {C}
  16.7,                                   !- Central Heating Design Supply Air Temperature {C}
  NonCoincident,                          !- Sizing Option
  Yes,                                    !- 100% Outdoor Air in Cooling
  Yes,                                    !- 100% Outdoor Air in Heating
  0.0085,                                 !- Central Cooling Design Supply Air Humidity Ratio {kg-H2O/kg-Air}
  0.008,                                  !- Central Heating Design Supply Air Humidity Ratio {kg-H2O/kg-Air}
  DesignDay,                              !- Cooling Design Air Flow Method
  0,                                      !- Cooling Design Air Flow Rate {m3/s}
  DesignDay,                              !- Heating Design Air Flow Method
  0,                                      !- Heating Design Air Flow Rate {m3/s}
  ZoneSum,                                !- System Outdoor Air Method
  1,                                      !- Zone Maximum Outdoor Air Fraction {dimensionless}
  0.0099676501,                           !- Cooling Supply Air Flow Rate Per Floor Area {m3/s-m2}
  1,                                      !- Cooling Fraction of Autosized Cooling Supply Air Flow Rate
  3.9475456e-005,                         !- Cooling Supply Air Flow Rate Per Unit Cooling Capacity {m3/s-W}
  0.0099676501,                           !- Heating Supply Air Flow Rate Per Floor Area {m3/s-m2}
  1,                                      !- Heating Fraction of Autosized Heating Supply Air Flow Rate
  1,                                      !- Heating Fraction of Autosized Cooling Supply Air Flow Rate
  3.1588213e-005,                         !- Heating Supply Air Flow Rate Per Unit Heating Capacity {m3/s-W}
  CoolingDesignCapacity,                  !- Cooling Design Capacity Method
  autosize,                               !- Cooling Design Capacity {W}
  234.7,                                  !- Cooling Design Capacity Per Floor Area {W/m2}
  1,                                      !- Fraction of Autosized Cooling Design Capacity
  HeatingDesignCapacity,                  !- Heating Design Capacity Method
  autosize,                               !- Heating Design Capacity {W}
  157,                                    !- Heating Design Capacity Per Floor Area {W/m2}
  1,                                      !- Fraction of Autosized Heating Design Capacity
  OnOff;                                  !- Central Cooling Capacity Control Method

OS:Schedule:Constant,
  {54e1bb83-f500-49e5-b313-0c5ad9045f21}, !- Handle
  Always On Discrete,                     !- Name
  {7ffc1262-5ee2-4dc8-b760-b04cdf05331d}, !- Schedule Type Limits Name
  1;                                      !- Value

OS:ScheduleTypeLimits,
  {7ffc1262-5ee2-4dc8-b760-b04cdf05331d}, !- Handle
  OnOff,                                  !- Name
  0,                                      !- Lower Limit Value
  1,                                      !- Upper Limit Value
  Discrete,                               !- Numeric Type
  Availability;                           !- Unit Type

OS:AvailabilityManagerAssignmentList,
  {96559c2c-b857-4669-bf37-9522853330d6}, !- Handle
  Air Loop HVAC 1 AvailabilityManagerAssignmentList; !- Name

OS:Coil:Heating:Water,
  {a1e9736b-44f5-40d5-8f1b-381464ff4232}, !- Handle
  Coil:Heating:Water [#3BbfCN],           !- Name
  {54e1bb83-f500-49e5-b313-0c5ad9045f21}, !- Availability Schedule Name
  ,                                       !- U-Factor Times Area Value {W/K}
  ,                                       !- Maximum Water Flow Rate {m3/s}
  {5a39cd6f-dfaf-4470-b531-70cea86277af}, !- Water Inlet Node Name
  {79dd98d2-3d4d-4077-a54c-12efca2fb162}, !- Water Outlet Node Name
  {4ccfd7b3-01bb-4b32-b509-0cd06a769365}, !- Air Inlet Node Name
  {4ec762f8-30cc-4315-9740-c333b96a60df}, !- Air Outlet Node Name
  ,                                       !- Performance Input Method
  ,                                       !- Rated Capacity {W}
  ,                                       !- Rated Inlet Water Temperature {C}
  ,                                       !- Rated Inlet Air Temperature {C}
  ,                                       !- Rated Outlet Water Temperature {C}
  ,                                       !- Rated Outlet Air Temperature {C}
  ;                                       !- Rated Ratio for Air and Water Convection

OS:Connection,
  {4ccfd7b3-01bb-4b32-b509-0cd06a769365}, !- Handle
  {9ff17c28-8698-4f32-b0db-90b19676fd5f}, !- Name
  {6bf619bc-4e99-4c5d-8f9a-d6a6103349f6}, !- Source Object
  3,                                      !- Outlet Port
  {a1e9736b-44f5-40d5-8f1b-381464ff4232}, !- Target Object
  7;                                      !- Inlet Port

OS:Connection,
  {4ec762f8-30cc-4315-9740-c333b96a60df}, !- Handle
  {8108f97d-4364-4aa4-8e51-1f7ef491da44}, !- Name
  {a1e9736b-44f5-40d5-8f1b-381464ff4232}, !- Source Object
  8,                                      !- Outlet Port
  {a6f4d95e-a06e-4fba-afc3-8b57300462cf}, !- Target Object
  2;                                      !- Inlet Port

OS:PlantLoop,
  {7a54a3f3-70ce-48b0-af84-eb7aae7385aa}, !- Handle
  PlantLoop [#5iSbOQ],                    !- Name
  Water,                                  !- Fluid Type
  0,                                      !- Glycol Concentration
  ,                                       !- User Defined Fluid Type
  ,                                       !- Plant Equipment Operation Heating Load
  ,                                       !- Plant Equipment Operation Cooling Load
  ,                                       !- Primary Plant Equipment Operation Scheme
  {83a659e2-8be7-44d9-a907-bb14e2d21943}, !- Loop Temperature Setpoint Node Name
  ,                                       !- Maximum Loop Temperature {C}
  ,                                       !- Minimum Loop Temperature {C}
  ,                                       !- Maximum Loop Flow Rate {m3/s}
  ,                                       !- Minimum Loop Flow Rate {m3/s}
  Autocalculate,                          !- Plant Loop Volume {m3}
  {93f28807-f126-45c0-9fd1-9f07a33e0c34}, !- Plant Side Inlet Node Name
  {1ff3615f-c959-486f-bd3d-7bf86c24db96}, !- Plant Side Outlet Node Name
  ,                                       !- Plant Side Branch List Name
  {cbc3357b-d606-4d06-86db-23124e3dcdd0}, !- Demand Side Inlet Node Name
  {fd0f0d48-8fb8-4a67-927f-ce6b2bf056fb}, !- Demand Side Outlet Node Name
  ,                                       !- Demand Side Branch List Name
  ,                                       !- Demand Side Connector List Name
  Optimal,                                !- Load Distribution Scheme
  {455c95f0-0204-49b3-9b04-68c5670d021c}, !- Availability Manager List Name
  ,                                       !- Plant Loop Demand Calculation Scheme
  ,                                       !- Common Pipe Simulation
  ,                                       !- Pressure Simulation Type
  ,                                       !- Plant Equipment Operation Heating Load Schedule
  ,                                       !- Plant Equipment Operation Cooling Load Schedule
  ,                                       !- Primary Plant Equipment Operation Scheme Schedule
  ,                                       !- Component Setpoint Operation Scheme Schedule
  {cfe6582e-0fcb-4fb7-998a-5e4145db34e7}, !- Demand Mixer Name
  {54292e0c-ef5e-4309-af65-3104c5c5abe4}, !- Demand Splitter Name
  {231c1dbe-eff4-4913-82c9-42b7e3a9dd22}, !- Supply Mixer Name
  {d207c1dd-aef7-43a9-9d43-247b8836e2aa}; !- Supply Splitter Name

OS:Sizing:Plant,
  {d8389d96-57e7-4144-8999-84a55eeacc67}, !- Handle
  {7a54a3f3-70ce-48b0-af84-eb7aae7385aa}, !- Plant or Condenser Loop Name
  Heating,                                !- Loop Type
  82,                                     !- Design Loop Exit Temperature {C}
  11,                                     !- Loop Design Temperature Difference {deltaC}
  NonCoincident,                          !- Sizing Option
  1,                                      !- Zone Timesteps in Averaging Window
  None;                                   !- Coincident Sizing Factor Mode

OS:Node,
  {929cec5d-12e1-4b3a-baec-881f146249fe}, !- Handle
  Node 6,                                 !- Name
  {93f28807-f126-45c0-9fd1-9f07a33e0c34}, !- Inlet Port
  {b1bb2a9b-ea1e-40a4-a9ab-44ac0f172a88}; !- Outlet Port

OS:Node,
  {83a659e2-8be7-44d9-a907-bb14e2d21943}, !- Handle
  Node 7,                                 !- Name
  {80294d01-f47a-4d8c-ad74-83b73a93e24b}, !- Inlet Port
  {1ff3615f-c959-486f-bd3d-7bf86c24db96}; !- Outlet Port

OS:Node,
  {d921417b-bb09-4222-ad1c-caa5e12a0307}, !- Handle
  Node 8,                                 !- Name
  {272a5baf-619e-4b96-aad4-c99c68e09fb8}, !- Inlet Port
  {abed01b2-a429-4ef1-a1be-bb0fc51d10a4}; !- Outlet Port

OS:Connector:Mixer,
  {231c1dbe-eff4-4913-82c9-42b7e3a9dd22}, !- Handle
  Connector Mixer 1,                      !- Name
  {80294d01-f47a-4d8c-ad74-83b73a93e24b}, !- Outlet Branch Name
  {10f9548d-de77-4e76-a2e9-f0b036591444}; !- Inlet Branch Name 1

OS:Connector:Splitter,
  {d207c1dd-aef7-43a9-9d43-247b8836e2aa}, !- Handle
  Connector Splitter 1,                   !- Name
  {b1bb2a9b-ea1e-40a4-a9ab-44ac0f172a88}, !- Inlet Branch Name
  {272a5baf-619e-4b96-aad4-c99c68e09fb8}; !- Outlet Branch Name 1

OS:Connection,
  {93f28807-f126-45c0-9fd1-9f07a33e0c34}, !- Handle
  {8a7f3586-c4e6-46c7-b1bf-e79101406264}, !- Name
  {7a54a3f3-70ce-48b0-af84-eb7aae7385aa}, !- Source Object
  14,                                     !- Outlet Port
  {929cec5d-12e1-4b3a-baec-881f146249fe}, !- Target Object
  2;                                      !- Inlet Port

OS:Connection,
  {b1bb2a9b-ea1e-40a4-a9ab-44ac0f172a88}, !- Handle
  {f420e4b4-aa25-4616-ac58-168e97ae0665}, !- Name
  {929cec5d-12e1-4b3a-baec-881f146249fe}, !- Source Object
  3,                                      !- Outlet Port
  {d207c1dd-aef7-43a9-9d43-247b8836e2aa}, !- Target Object
  2;                                      !- Inlet Port

OS:Connection,
  {272a5baf-619e-4b96-aad4-c99c68e09fb8}, !- Handle
  {49e0d270-7c8f-43ef-9f20-cb29cdfe34d4}, !- Name
  {d207c1dd-aef7-43a9-9d43-247b8836e2aa}, !- Source Object
  3,                                      !- Outlet Port
  {d921417b-bb09-4222-ad1c-caa5e12a0307}, !- Target Object
  2;                                      !- Inlet Port

OS:Connection,
  {80294d01-f47a-4d8c-ad74-83b73a93e24b}, !- Handle
  {bb8aecff-61ca-4076-9328-de5f515464b5}, !- Name
  {231c1dbe-eff4-4913-82c9-42b7e3a9dd22}, !- Source Object
  2,                                      !- Outlet Port
  {83a659e2-8be7-44d9-a907-bb14e2d21943}, !- Target Object
  2;                                      !- Inlet Port

OS:Connection,
  {1ff3615f-c959-486f-bd3d-7bf86c24db96}, !- Handle
  {d73ce66e-ce9a-4218-9d38-3c902fd4ae58}, !- Name
  {83a659e2-8be7-44d9-a907-bb14e2d21943}, !- Source Object
  3,                                      !- Outlet Port
  {7a54a3f3-70ce-48b0-af84-eb7aae7385aa}, !- Target Object
  15;                                     !- Inlet Port

OS:Node,
  {cece0ae5-423a-40db-a48e-fe6ce5d8da12}, !- Handle
  Node 9,                                 !- Name
  {cbc3357b-d606-4d06-86db-23124e3dcdd0}, !- Inlet Port
  {f46e2f66-ccdb-4d3b-b809-6640fc77bcc4}; !- Outlet Port

OS:Node,
  {b04f1cbf-055d-4cc5-9875-44236b624142}, !- Handle
  Node 10,                                !- Name
  {0d638d45-5e45-40d7-818a-a4becfb81b25}, !- Inlet Port
  {fd0f0d48-8fb8-4a67-927f-ce6b2bf056fb}; !- Outlet Port

OS:Node,
  {55a89bc4-b162-4705-8390-bdbaf31b5335}, !- Handle
  Node 11,                                !- Name
  {f4325438-6202-4df2-aa15-0e29553840b5}, !- Inlet Port
  {5a39cd6f-dfaf-4470-b531-70cea86277af}; !- Outlet Port

OS:Connector:Mixer,
  {cfe6582e-0fcb-4fb7-998a-5e4145db34e7}, !- Handle
  Connector Mixer 2,                      !- Name
  {0d638d45-5e45-40d7-818a-a4becfb81b25}, !- Outlet Branch Name
  {3f2a77e3-0094-4b64-ab51-f4b9884feee1}; !- Inlet Branch Name 1

OS:Connector:Splitter,
  {54292e0c-ef5e-4309-af65-3104c5c5abe4}, !- Handle
  Connector Splitter 2,                   !- Name
  {f46e2f66-ccdb-4d3b-b809-6640fc77bcc4}, !- Inlet Branch Name
  {f4325438-6202-4df2-aa15-0e29553840b5}; !- Outlet Branch Name 1

OS:Connection,
  {cbc3357b-d606-4d06-86db-23124e3dcdd0}, !- Handle
  {8da48ed7-3020-4e45-a201-e1794fbe2108}, !- Name
  {7a54a3f3-70ce-48b0-af84-eb7aae7385aa}, !- Source Object
  17,                                     !- Outlet Port
  {cece0ae5-423a-40db-a48e-fe6ce5d8da12}, !- Target Object
  2;                                      !- Inlet Port

OS:Connection,
  {f46e2f66-ccdb-4d3b-b809-6640fc77bcc4}, !- Handle
  {cdf38339-b517-4184-bbc2-88a27478fea6}, !- Name
  {cece0ae5-423a-40db-a48e-fe6ce5d8da12}, !- Source Object
  3,                                      !- Outlet Port
  {54292e0c-ef5e-4309-af65-3104c5c5abe4}, !- Target Object
  2;                                      !- Inlet Port

OS:Connection,
  {f4325438-6202-4df2-aa15-0e29553840b5}, !- Handle
  {ad0b3a2e-ec59-472f-bac4-963652975016}, !- Name
  {54292e0c-ef5e-4309-af65-3104c5c5abe4}, !- Source Object
  3,                                      !- Outlet Port
  {55a89bc4-b162-4705-8390-bdbaf31b5335}, !- Target Object
  2;                                      !- Inlet Port

OS:Connection,
  {0d638d45-5e45-40d7-818a-a4becfb81b25}, !- Handle
  {2eebbabc-7d79-46f8-9f38-ebd5ba5ebfd5}, !- Name
  {cfe6582e-0fcb-4fb7-998a-5e4145db34e7}, !- Source Object
  2,                                      !- Outlet Port
  {b04f1cbf-055d-4cc5-9875-44236b624142}, !- Target Object
  2;                                      !- Inlet Port

OS:Connection,
  {fd0f0d48-8fb8-4a67-927f-ce6b2bf056fb}, !- Handle
  {9e54e6b4-fa97-440d-a6be-41092a3b1b17}, !- Name
  {b04f1cbf-055d-4cc5-9875-44236b624142}, !- Source Object
  3,                                      !- Outlet Port
  {7a54a3f3-70ce-48b0-af84-eb7aae7385aa}, !- Target Object
  18;                                     !- Inlet Port

OS:AvailabilityManagerAssignmentList,
  {455c95f0-0204-49b3-9b04-68c5670d021c}, !- Handle
  Plant Loop 1 AvailabilityManagerAssignmentList; !- Name

OS:Boiler:HotWater,
  {f627c9e2-eae2-4460-84ba-0ad927474592}, !- Handle
  Boiler:Hotwater [#N5qhdR],              !- Name
  ,                                       !- Fuel Type
  ,                                       !- Nominal Capacity {W}
  ,                                       !- Nominal Thermal Efficiency
  ,                                       !- Efficiency Curve Temperature Evaluation Variable
  ,                                       !- Normalized Boiler Efficiency Curve Name
  ,                                       !- Design Water Outlet Temperature {C}
  ,                                       !- Design Water Flow Rate {m3/s}
  ,                                       !- Minimum Part Load Ratio
  ,                                       !- Maximum Part Load Ratio
  ,                                       !- Optimum Part Load Ratio
  {abed01b2-a429-4ef1-a1be-bb0fc51d10a4}, !- Boiler Water Inlet Node Name
  {d207d04c-21c9-4ff7-b4d9-5ba6d5c5dccd}, !- Boiler Water Outlet Node Name
  99,                                     !- Water Outlet Upper Temperature Limit {C}
  ConstantFlow,                           !- Boiler Flow Mode
  0,                                      !- Parasitic Electric Load {W}
  1;                                      !- Sizing Factor

OS:Node,
  {1a4dbec6-c7d0-440a-b789-012cd26e1b73}, !- Handle
  Node 12,                                !- Name
  {d207d04c-21c9-4ff7-b4d9-5ba6d5c5dccd}, !- Inlet Port
  {10f9548d-de77-4e76-a2e9-f0b036591444}; !- Outlet Port

OS:Connection,
  {abed01b2-a429-4ef1-a1be-bb0fc51d10a4}, !- Handle
  {9e053107-61eb-459c-92ce-5a8b43cbfd38}, !- Name
  {d921417b-bb09-4222-ad1c-caa5e12a0307}, !- Source Object
  3,                                      !- Outlet Port
  {f627c9e2-eae2-4460-84ba-0ad927474592}, !- Target Object
  12;                                     !- Inlet Port

OS:Connection,
  {d207d04c-21c9-4ff7-b4d9-5ba6d5c5dccd}, !- Handle
  {159c3317-cd71-4c37-8283-f27ce52f2e26}, !- Name
  {f627c9e2-eae2-4460-84ba-0ad927474592}, !- Source Object
  13,                                     !- Outlet Port
  {1a4dbec6-c7d0-440a-b789-012cd26e1b73}, !- Target Object
  2;                                      !- Inlet Port

OS:Connection,
  {10f9548d-de77-4e76-a2e9-f0b036591444}, !- Handle
  {f8a369b3-ebf9-4aad-8d56-c683b7409be1}, !- Name
  {1a4dbec6-c7d0-440a-b789-012cd26e1b73}, !- Source Object
  3,                                      !- Outlet Port
  {231c1dbe-eff4-4913-82c9-42b7e3a9dd22}, !- Target Object
  3;                                      !- Inlet Port

OS:Node,
  {f9fc8bda-4b96-4967-a590-860d36201ea8}, !- Handle
  Node 13,                                !- Name
  {79dd98d2-3d4d-4077-a54c-12efca2fb162}, !- Inlet Port
  {3f2a77e3-0094-4b64-ab51-f4b9884feee1}; !- Outlet Port

OS:Connection,
  {5a39cd6f-dfaf-4470-b531-70cea86277af}, !- Handle
  {eab79cd6-58f0-4a08-a90e-2b97a643eb9d}, !- Name
  {55a89bc4-b162-4705-8390-bdbaf31b5335}, !- Source Object
  3,                                      !- Outlet Port
  {a1e9736b-44f5-40d5-8f1b-381464ff4232}, !- Target Object
  5;                                      !- Inlet Port

OS:Connection,
  {79dd98d2-3d4d-4077-a54c-12efca2fb162}, !- Handle
  {7715f340-39ef-44f6-8a13-0b38a5f9a0fe}, !- Name
  {a1e9736b-44f5-40d5-8f1b-381464ff4232}, !- Source Object
  6,                                      !- Outlet Port
  {f9fc8bda-4b96-4967-a590-860d36201ea8}, !- Target Object
  2;                                      !- Inlet Port

OS:Connection,
  {3f2a77e3-0094-4b64-ab51-f4b9884feee1}, !- Handle
  {70a141af-0c30-479d-b865-6447193196e3}, !- Name
  {f9fc8bda-4b96-4967-a590-860d36201ea8}, !- Source Object
  3,                                      !- Outlet Port
  {cfe6582e-0fcb-4fb7-998a-5e4145db34e7}, !- Target Object
  3;                                      !- Inlet Port

OS:Controller:WaterCoil,
  {957a0f8c-c50d-46f1-9c3a-bc1e4f415fec}, !- Handle
  Controller Water Coil 1,                !- Name
  {a1e9736b-44f5-40d5-8f1b-381464ff4232}, !- Water Coil Name
  ,                                       !- Control Variable
  Normal,                                 !- Action
  ,                                       !- Actuator Variable
  ,                                       !- Sensor Node Name
  ,                                       !- Actuator Node Name
  ,                                       !- Controller Convergence Tolerance {deltaC}
  ,                                       !- Maximum Actuated Flow {m3/s}
  0;                                      !- Minimum Actuated Flow {m3/s}

