
OS:Version,
  {420eb32a-70d6-4dfe-a522-df3b7ccd8d08}, !- Handle
  2.4.0;                                  !- Version Identifier

OS:AirLoopHVAC,
  {c6b5a726-a18b-4792-8bb7-0379f54c1e8e}, !- Handle
  Air Loop HVAC 1,                        !- Name
  ,                                       !- Controller List Name
  {02f3eb0c-0fdd-4690-929b-623ac6f707b3}, !- Availability Schedule
  {6b351714-6c01-48c1-ae3d-77def76a4fa2}, !- Availability Manager List Name
  AutoSize,                               !- Design Supply Air Flow Rate {m3/s}
  ,                                       !- Branch List Name
  ,                                       !- Connector List Name
  {c0e4fe74-6fa7-4147-9e8d-5571f011afe4}, !- Supply Side Inlet Node Name
  {3965f886-8269-4920-bcd3-bada5789e6a1}, !- Demand Side Outlet Node Name
  {e9a56fca-d62f-46bc-be54-c528a57a0947}, !- Demand Side Inlet Node A
  {b43fc114-8166-4d29-970d-95a06d17a830}, !- Supply Side Outlet Node A
  ,                                       !- Demand Side Inlet Node B
  ,                                       !- Supply Side Outlet Node B
  ,                                       !- Return Air Bypass Flow Temperature Setpoint Schedule Name
  {3124ec47-6851-4574-8580-7d4049c4f682}, !- Demand Mixer Name
  {52139982-6564-4e89-8526-80679c3faafb}, !- Demand Splitter A Name
  ,                                       !- Demand Splitter B Name
  ;                                       !- Supply Splitter Name

OS:Node,
  {1d596d4a-a417-4678-a77e-7a3381ca7681}, !- Handle
  Node 1,                                 !- Name
  {c0e4fe74-6fa7-4147-9e8d-5571f011afe4}, !- Inlet Port
  {7e17bfd8-cdbe-4d70-b413-6841eb92a9a2}; !- Outlet Port

OS:Node,
  {c3ab2671-d901-45b3-8d36-63f61f0cedd5}, !- Handle
  Node 2,                                 !- Name
  {7e17bfd8-cdbe-4d70-b413-6841eb92a9a2}, !- Inlet Port
  {b43fc114-8166-4d29-970d-95a06d17a830}; !- Outlet Port

OS:Connection,
  {c0e4fe74-6fa7-4147-9e8d-5571f011afe4}, !- Handle
  {a95eff70-fbcf-46c6-93dd-940fb10a85cf}, !- Name
  {c6b5a726-a18b-4792-8bb7-0379f54c1e8e}, !- Source Object
  8,                                      !- Outlet Port
  {1d596d4a-a417-4678-a77e-7a3381ca7681}, !- Target Object
  2;                                      !- Inlet Port

OS:Connection,
  {7e17bfd8-cdbe-4d70-b413-6841eb92a9a2}, !- Handle
  {2d2731e1-9730-436c-9ded-5908e0f31299}, !- Name
  {1d596d4a-a417-4678-a77e-7a3381ca7681}, !- Source Object
  3,                                      !- Outlet Port
  {c3ab2671-d901-45b3-8d36-63f61f0cedd5}, !- Target Object
  2;                                      !- Inlet Port

OS:Connection,
  {b43fc114-8166-4d29-970d-95a06d17a830}, !- Handle
  {2cfd42c9-8b65-451f-a6b7-3e23e80f684c}, !- Name
  {c3ab2671-d901-45b3-8d36-63f61f0cedd5}, !- Source Object
  3,                                      !- Outlet Port
  {c6b5a726-a18b-4792-8bb7-0379f54c1e8e}, !- Target Object
  11;                                     !- Inlet Port

OS:Node,
  {00a48081-568a-4257-8055-b65705d91a96}, !- Handle
  Node 3,                                 !- Name
  {e9a56fca-d62f-46bc-be54-c528a57a0947}, !- Inlet Port
  {ebb92c3d-40db-4989-871a-3adafa1edf9b}; !- Outlet Port

OS:Node,
  {7d663567-400e-4855-a0a4-60928ef9cac4}, !- Handle
  Node 4,                                 !- Name
  {54610f8d-00bc-46c2-9fa3-020aafa77b0f}, !- Inlet Port
  {3965f886-8269-4920-bcd3-bada5789e6a1}; !- Outlet Port

OS:Node,
  {f099e4fe-6f50-42b2-83d4-fa4ba6e2fdd9}, !- Handle
  Node 5,                                 !- Name
  {84fc1151-c921-4f62-8091-8a977e6c90e1}, !- Inlet Port
  {2ff908fc-708b-4e88-9b16-ae606f6f3c66}; !- Outlet Port

OS:Connection,
  {e9a56fca-d62f-46bc-be54-c528a57a0947}, !- Handle
  {496962e5-d209-4503-a02e-5b1e3c5ed07a}, !- Name
  {c6b5a726-a18b-4792-8bb7-0379f54c1e8e}, !- Source Object
  10,                                     !- Outlet Port
  {00a48081-568a-4257-8055-b65705d91a96}, !- Target Object
  2;                                      !- Inlet Port

OS:Connection,
  {3965f886-8269-4920-bcd3-bada5789e6a1}, !- Handle
  {6b1fddc3-2003-436e-86c4-dd26a4334cd7}, !- Name
  {7d663567-400e-4855-a0a4-60928ef9cac4}, !- Source Object
  3,                                      !- Outlet Port
  {c6b5a726-a18b-4792-8bb7-0379f54c1e8e}, !- Target Object
  9;                                      !- Inlet Port

OS:AirLoopHVAC:ZoneSplitter,
  {52139982-6564-4e89-8526-80679c3faafb}, !- Handle
  Air Loop HVAC Zone Splitter 1,          !- Name
  {ebb92c3d-40db-4989-871a-3adafa1edf9b}, !- Inlet Node Name
  {84fc1151-c921-4f62-8091-8a977e6c90e1}; !- Outlet Node Name 1

OS:AirLoopHVAC:ZoneMixer,
  {3124ec47-6851-4574-8580-7d4049c4f682}, !- Handle
  Air Loop HVAC Zone Mixer 1,             !- Name
  {54610f8d-00bc-46c2-9fa3-020aafa77b0f}, !- Outlet Node Name
  {2ff908fc-708b-4e88-9b16-ae606f6f3c66}; !- Inlet Node Name 1

OS:Connection,
  {ebb92c3d-40db-4989-871a-3adafa1edf9b}, !- Handle
  {6dfdfc78-2f37-4bb4-8717-692c7eea5a07}, !- Name
  {00a48081-568a-4257-8055-b65705d91a96}, !- Source Object
  3,                                      !- Outlet Port
  {52139982-6564-4e89-8526-80679c3faafb}, !- Target Object
  2;                                      !- Inlet Port

OS:Connection,
  {84fc1151-c921-4f62-8091-8a977e6c90e1}, !- Handle
  {e42ce8ff-6cb7-4540-9a8e-08fa66b65082}, !- Name
  {52139982-6564-4e89-8526-80679c3faafb}, !- Source Object
  3,                                      !- Outlet Port
  {f099e4fe-6f50-42b2-83d4-fa4ba6e2fdd9}, !- Target Object
  2;                                      !- Inlet Port

OS:Connection,
  {2ff908fc-708b-4e88-9b16-ae606f6f3c66}, !- Handle
  {3c614669-ba2d-42c1-b1a3-f731d30f669d}, !- Name
  {f099e4fe-6f50-42b2-83d4-fa4ba6e2fdd9}, !- Source Object
  3,                                      !- Outlet Port
  {3124ec47-6851-4574-8580-7d4049c4f682}, !- Target Object
  3;                                      !- Inlet Port

OS:Connection,
  {54610f8d-00bc-46c2-9fa3-020aafa77b0f}, !- Handle
  {1ca57374-822e-44a6-97bb-041ab228556e}, !- Name
  {3124ec47-6851-4574-8580-7d4049c4f682}, !- Source Object
  2,                                      !- Outlet Port
  {7d663567-400e-4855-a0a4-60928ef9cac4}, !- Target Object
  2;                                      !- Inlet Port

OS:Sizing:System,
  {108a24db-eaaf-4f70-bc12-7da60a031877}, !- Handle
  {c6b5a726-a18b-4792-8bb7-0379f54c1e8e}, !- AirLoop Name
  Sensible,                               !- Type of Load to Size On
  Autosize,                               !- Design Outdoor Air Flow Rate {m3/s}
  0.3,                                    !- Minimum System Air Flow Ratio
  7,                                      !- Preheat Design Temperature {C}
  0.008,                                  !- Preheat Design Humidity Ratio {kg-H2O/kg-Air}
  12.8,                                   !- Precool Design Temperature {C}
  0.008,                                  !- Precool Design Humidity Ratio {kg-H2O/kg-Air}
  12.8,                                   !- Central Cooling Design Supply Air Temperature {C}
  16.7,                                   !- Central Heating Design Supply Air Temperature {C}
  NonCoincident,                          !- Sizing Option
  Yes,                                    !- 100% Outdoor Air in Cooling
  Yes,                                    !- 100% Outdoor Air in Heating
  0.0085,                                 !- Central Cooling Design Supply Air Humidity Ratio {kg-H2O/kg-Air}
  0.008,                                  !- Central Heating Design Supply Air Humidity Ratio {kg-H2O/kg-Air}
  DesignDay,                              !- Cooling Design Air Flow Method
  0,                                      !- Cooling Design Air Flow Rate {m3/s}
  DesignDay,                              !- Heating Design Air Flow Method
  0,                                      !- Heating Design Air Flow Rate {m3/s}
  ZoneSum,                                !- System Outdoor Air Method
  1,                                      !- Zone Maximum Outdoor Air Fraction {dimensionless}
  0.0099676501,                           !- Cooling Supply Air Flow Rate Per Floor Area {m3/s-m2}
  1,                                      !- Cooling Fraction of Autosized Cooling Supply Air Flow Rate
  3.9475456e-005,                         !- Cooling Supply Air Flow Rate Per Unit Cooling Capacity {m3/s-W}
  0.0099676501,                           !- Heating Supply Air Flow Rate Per Floor Area {m3/s-m2}
  1,                                      !- Heating Fraction of Autosized Heating Supply Air Flow Rate
  1,                                      !- Heating Fraction of Autosized Cooling Supply Air Flow Rate
  3.1588213e-005,                         !- Heating Supply Air Flow Rate Per Unit Heating Capacity {m3/s-W}
  CoolingDesignCapacity,                  !- Cooling Design Capacity Method
  autosize,                               !- Cooling Design Capacity {W}
  234.7,                                  !- Cooling Design Capacity Per Floor Area {W/m2}
  1,                                      !- Fraction of Autosized Cooling Design Capacity
  HeatingDesignCapacity,                  !- Heating Design Capacity Method
  autosize,                               !- Heating Design Capacity {W}
  157,                                    !- Heating Design Capacity Per Floor Area {W/m2}
  1,                                      !- Fraction of Autosized Heating Design Capacity
  OnOff;                                  !- Central Cooling Capacity Control Method

OS:Schedule:Constant,
  {02f3eb0c-0fdd-4690-929b-623ac6f707b3}, !- Handle
  Always On Discrete,                     !- Name
  {1ede00f7-8d0d-4039-a632-21175bab1e80}, !- Schedule Type Limits Name
  1;                                      !- Value

OS:ScheduleTypeLimits,
  {1ede00f7-8d0d-4039-a632-21175bab1e80}, !- Handle
  OnOff,                                  !- Name
  0,                                      !- Lower Limit Value
  1,                                      !- Upper Limit Value
  Discrete,                               !- Numeric Type
  Availability;                           !- Unit Type

OS:AvailabilityManagerAssignmentList,
  {6b351714-6c01-48c1-ae3d-77def76a4fa2}, !- Handle
  Air Loop HVAC 1 AvailabilityManagerAssignmentList; !- Name

OS:PlantLoop,
  {eb4d9182-9b6f-4ed7-8c57-4745b0f2d358}, !- Handle
  PlantLoop [#BQ2nYm],                    !- Name
  Water,                                  !- Fluid Type
  0,                                      !- Glycol Concentration
  ,                                       !- User Defined Fluid Type
  ,                                       !- Plant Equipment Operation Heating Load
  ,                                       !- Plant Equipment Operation Cooling Load
  ,                                       !- Primary Plant Equipment Operation Scheme
  {1acb8213-6910-4c77-9174-3cddb891e22a}, !- Loop Temperature Setpoint Node Name
  ,                                       !- Maximum Loop Temperature {C}
  ,                                       !- Minimum Loop Temperature {C}
  ,                                       !- Maximum Loop Flow Rate {m3/s}
  ,                                       !- Minimum Loop Flow Rate {m3/s}
  Autocalculate,                          !- Plant Loop Volume {m3}
  {05b483e3-1d05-4fcd-b92a-9344e8f0a24b}, !- Plant Side Inlet Node Name
  {9562d55d-49ea-4622-aa40-89811630afd1}, !- Plant Side Outlet Node Name
  ,                                       !- Plant Side Branch List Name
  {51cef80d-9d57-4816-ae68-a5c95b731527}, !- Demand Side Inlet Node Name
  {77ce1c9c-3ce3-4be2-89e1-487428906d0a}, !- Demand Side Outlet Node Name
  ,                                       !- Demand Side Branch List Name
  ,                                       !- Demand Side Connector List Name
  Optimal,                                !- Load Distribution Scheme
  {b5c50980-8fac-4e83-bede-eed4b7cf5e53}, !- Availability Manager List Name
  ,                                       !- Plant Loop Demand Calculation Scheme
  ,                                       !- Common Pipe Simulation
  ,                                       !- Pressure Simulation Type
  ,                                       !- Plant Equipment Operation Heating Load Schedule
  ,                                       !- Plant Equipment Operation Cooling Load Schedule
  ,                                       !- Primary Plant Equipment Operation Scheme Schedule
  ,                                       !- Component Setpoint Operation Scheme Schedule
  {ff23825d-7556-4d88-8146-f33de6e1186d}, !- Demand Mixer Name
  {7e07a369-bde0-4579-901a-b12e6fb35bf4}, !- Demand Splitter Name
  {90c7483b-82d3-4fc2-b67b-41e2ed74f646}, !- Supply Mixer Name
  {0a64bd88-c2da-4a4d-9e16-3d66c91efc71}; !- Supply Splitter Name

OS:Sizing:Plant,
  {cf463f0e-afa6-4020-ad9a-0b3afa95b29d}, !- Handle
  {eb4d9182-9b6f-4ed7-8c57-4745b0f2d358}, !- Plant or Condenser Loop Name
  Heating,                                !- Loop Type
  82,                                     !- Design Loop Exit Temperature {C}
  11,                                     !- Loop Design Temperature Difference {deltaC}
  NonCoincident,                          !- Sizing Option
  1,                                      !- Zone Timesteps in Averaging Window
  None;                                   !- Coincident Sizing Factor Mode

OS:Node,
  {55e07f33-178b-4554-96d6-9821ccbb399a}, !- Handle
  Node 6,                                 !- Name
  {05b483e3-1d05-4fcd-b92a-9344e8f0a24b}, !- Inlet Port
  {d4cab8ab-6eb5-4269-82b3-57c58bdb2035}; !- Outlet Port

OS:Node,
  {1acb8213-6910-4c77-9174-3cddb891e22a}, !- Handle
  Node 7,                                 !- Name
  {1c80b24e-6f21-46a8-93a6-0ed9d124bb14}, !- Inlet Port
  {9562d55d-49ea-4622-aa40-89811630afd1}; !- Outlet Port

OS:Node,
  {22ddffde-7584-48f2-8a05-bc626de44eda}, !- Handle
  Node 8,                                 !- Name
  {ad0e8cc6-b42d-4520-ad13-a4aa31d0b88a}, !- Inlet Port
  {d00a948a-13ab-48fc-973c-6c26307cb63d}; !- Outlet Port

OS:Connector:Mixer,
  {90c7483b-82d3-4fc2-b67b-41e2ed74f646}, !- Handle
  Connector Mixer 1,                      !- Name
  {1c80b24e-6f21-46a8-93a6-0ed9d124bb14}, !- Outlet Branch Name
  {a89d6ba2-5109-41e7-afae-7e14dbb15a08}; !- Inlet Branch Name 1

OS:Connector:Splitter,
  {0a64bd88-c2da-4a4d-9e16-3d66c91efc71}, !- Handle
  Connector Splitter 1,                   !- Name
  {d4cab8ab-6eb5-4269-82b3-57c58bdb2035}, !- Inlet Branch Name
  {ad0e8cc6-b42d-4520-ad13-a4aa31d0b88a}; !- Outlet Branch Name 1

OS:Connection,
  {05b483e3-1d05-4fcd-b92a-9344e8f0a24b}, !- Handle
  {79bdddc3-3da9-49e4-8193-a2475b47ae0b}, !- Name
  {eb4d9182-9b6f-4ed7-8c57-4745b0f2d358}, !- Source Object
  14,                                     !- Outlet Port
  {55e07f33-178b-4554-96d6-9821ccbb399a}, !- Target Object
  2;                                      !- Inlet Port

OS:Connection,
  {d4cab8ab-6eb5-4269-82b3-57c58bdb2035}, !- Handle
  {6518a9fa-9c66-471e-b73f-79b8d7dcfdbf}, !- Name
  {55e07f33-178b-4554-96d6-9821ccbb399a}, !- Source Object
  3,                                      !- Outlet Port
  {0a64bd88-c2da-4a4d-9e16-3d66c91efc71}, !- Target Object
  2;                                      !- Inlet Port

OS:Connection,
  {ad0e8cc6-b42d-4520-ad13-a4aa31d0b88a}, !- Handle
  {ad7cbd25-94a0-4941-8f37-20f0f15385fa}, !- Name
  {0a64bd88-c2da-4a4d-9e16-3d66c91efc71}, !- Source Object
  3,                                      !- Outlet Port
  {22ddffde-7584-48f2-8a05-bc626de44eda}, !- Target Object
  2;                                      !- Inlet Port

OS:Connection,
  {1c80b24e-6f21-46a8-93a6-0ed9d124bb14}, !- Handle
  {13b4c30f-f925-4047-a43f-a900dbc9dbaf}, !- Name
  {90c7483b-82d3-4fc2-b67b-41e2ed74f646}, !- Source Object
  2,                                      !- Outlet Port
  {1acb8213-6910-4c77-9174-3cddb891e22a}, !- Target Object
  2;                                      !- Inlet Port

OS:Connection,
  {9562d55d-49ea-4622-aa40-89811630afd1}, !- Handle
  {56ff728b-735e-4b82-a66b-7f1f627666b2}, !- Name
  {1acb8213-6910-4c77-9174-3cddb891e22a}, !- Source Object
  3,                                      !- Outlet Port
  {eb4d9182-9b6f-4ed7-8c57-4745b0f2d358}, !- Target Object
  15;                                     !- Inlet Port

OS:Node,
  {301bcff0-2215-444e-8ccb-bab656151b14}, !- Handle
  Node 9,                                 !- Name
  {51cef80d-9d57-4816-ae68-a5c95b731527}, !- Inlet Port
  {d543fa37-0d4a-4b16-ba6c-5c1fc168785b}; !- Outlet Port

OS:Node,
  {6ad98494-1ef5-48aa-a388-9f0b2e0f80f7}, !- Handle
  Node 10,                                !- Name
  {38ca7b00-778f-4819-981a-19d9567e9bf7}, !- Inlet Port
  {77ce1c9c-3ce3-4be2-89e1-487428906d0a}; !- Outlet Port

OS:Node,
  {2c1308bb-ac76-4208-be38-fc6533113721}, !- Handle
  Node 11,                                !- Name
  {58d2251f-f72e-42a1-8e8d-d536e7a4b4c3}, !- Inlet Port
  {2b9054aa-30e3-484a-989d-f6b1e93c3b45}; !- Outlet Port

OS:Connector:Mixer,
  {ff23825d-7556-4d88-8146-f33de6e1186d}, !- Handle
  Connector Mixer 2,                      !- Name
  {38ca7b00-778f-4819-981a-19d9567e9bf7}, !- Outlet Branch Name
  {2e3d72f2-1aa1-474e-9558-b447dc2c75c1}; !- Inlet Branch Name 1

OS:Connector:Splitter,
  {7e07a369-bde0-4579-901a-b12e6fb35bf4}, !- Handle
  Connector Splitter 2,                   !- Name
  {d543fa37-0d4a-4b16-ba6c-5c1fc168785b}, !- Inlet Branch Name
  {58d2251f-f72e-42a1-8e8d-d536e7a4b4c3}; !- Outlet Branch Name 1

OS:Connection,
  {51cef80d-9d57-4816-ae68-a5c95b731527}, !- Handle
  {a900fd7b-ae25-40f5-af84-70264dd38417}, !- Name
  {eb4d9182-9b6f-4ed7-8c57-4745b0f2d358}, !- Source Object
  17,                                     !- Outlet Port
  {301bcff0-2215-444e-8ccb-bab656151b14}, !- Target Object
  2;                                      !- Inlet Port

OS:Connection,
  {d543fa37-0d4a-4b16-ba6c-5c1fc168785b}, !- Handle
  {80151441-c6cb-46e1-a29b-778c6921376f}, !- Name
  {301bcff0-2215-444e-8ccb-bab656151b14}, !- Source Object
  3,                                      !- Outlet Port
  {7e07a369-bde0-4579-901a-b12e6fb35bf4}, !- Target Object
  2;                                      !- Inlet Port

OS:Connection,
  {58d2251f-f72e-42a1-8e8d-d536e7a4b4c3}, !- Handle
  {17202820-5535-4448-844a-8224ed5ad183}, !- Name
  {7e07a369-bde0-4579-901a-b12e6fb35bf4}, !- Source Object
  3,                                      !- Outlet Port
  {2c1308bb-ac76-4208-be38-fc6533113721}, !- Target Object
  2;                                      !- Inlet Port

OS:Connection,
  {38ca7b00-778f-4819-981a-19d9567e9bf7}, !- Handle
  {6b699dda-727b-42b9-956d-2df0d1317a6e}, !- Name
  {ff23825d-7556-4d88-8146-f33de6e1186d}, !- Source Object
  2,                                      !- Outlet Port
  {6ad98494-1ef5-48aa-a388-9f0b2e0f80f7}, !- Target Object
  2;                                      !- Inlet Port

OS:Connection,
  {77ce1c9c-3ce3-4be2-89e1-487428906d0a}, !- Handle
  {22325985-fcac-44d2-b5e3-397c1159946c}, !- Name
  {6ad98494-1ef5-48aa-a388-9f0b2e0f80f7}, !- Source Object
  3,                                      !- Outlet Port
  {eb4d9182-9b6f-4ed7-8c57-4745b0f2d358}, !- Target Object
  18;                                     !- Inlet Port

OS:AvailabilityManagerAssignmentList,
  {b5c50980-8fac-4e83-bede-eed4b7cf5e53}, !- Handle
  Plant Loop 1 AvailabilityManagerAssignmentList; !- Name

OS:Boiler:HotWater,
  {6d2bcbb4-4ea8-4fae-ada3-ee56435523b9}, !- Handle
  Boiler:Hotwater [#RL1FKK],              !- Name
  ,                                       !- Fuel Type
  ,                                       !- Nominal Capacity {W}
  ,                                       !- Nominal Thermal Efficiency
  ,                                       !- Efficiency Curve Temperature Evaluation Variable
  ,                                       !- Normalized Boiler Efficiency Curve Name
  80,                                     !- Design Water Outlet Temperature {C}
  ,                                       !- Design Water Flow Rate {m3/s}
  ,                                       !- Minimum Part Load Ratio
  ,                                       !- Maximum Part Load Ratio
  ,                                       !- Optimum Part Load Ratio
  {d00a948a-13ab-48fc-973c-6c26307cb63d}, !- Boiler Water Inlet Node Name
  {471738fc-2604-46d0-98d2-4e2fd0cb21cb}, !- Boiler Water Outlet Node Name
  99,                                     !- Water Outlet Upper Temperature Limit {C}
  ConstantFlow,                           !- Boiler Flow Mode
  0,                                      !- Parasitic Electric Load {W}
  1;                                      !- Sizing Factor

OS:Node,
  {3b5dbfc1-f1ee-4112-8f23-4331a8951cd1}, !- Handle
  Node 12,                                !- Name
  {471738fc-2604-46d0-98d2-4e2fd0cb21cb}, !- Inlet Port
  {a89d6ba2-5109-41e7-afae-7e14dbb15a08}; !- Outlet Port

OS:Connection,
  {d00a948a-13ab-48fc-973c-6c26307cb63d}, !- Handle
  {b47ffb18-dd97-4c15-957c-91a8558f018f}, !- Name
  {22ddffde-7584-48f2-8a05-bc626de44eda}, !- Source Object
  3,                                      !- Outlet Port
  {6d2bcbb4-4ea8-4fae-ada3-ee56435523b9}, !- Target Object
  12;                                     !- Inlet Port

OS:Connection,
  {471738fc-2604-46d0-98d2-4e2fd0cb21cb}, !- Handle
  {93252ee6-1639-49b0-9dce-bdf4f7b2dfe3}, !- Name
  {6d2bcbb4-4ea8-4fae-ada3-ee56435523b9}, !- Source Object
  13,                                     !- Outlet Port
  {3b5dbfc1-f1ee-4112-8f23-4331a8951cd1}, !- Target Object
  2;                                      !- Inlet Port

OS:Connection,
  {a89d6ba2-5109-41e7-afae-7e14dbb15a08}, !- Handle
  {f2ca565f-6d49-4ba5-999c-82f6d5184ade}, !- Name
  {3b5dbfc1-f1ee-4112-8f23-4331a8951cd1}, !- Source Object
  3,                                      !- Outlet Port
  {90c7483b-82d3-4fc2-b67b-41e2ed74f646}, !- Target Object
  3;                                      !- Inlet Port

OS:Coil:Heating:Water,
  {0eda8c6b-b34e-4b64-9122-5908e2150bf0}, !- Handle
  Coil:Heating:Water [#w9PiMd],           !- Name
  {02f3eb0c-0fdd-4690-929b-623ac6f707b3}, !- Availability Schedule Name
  ,                                       !- U-Factor Times Area Value {W/K}
  ,                                       !- Maximum Water Flow Rate {m3/s}
  {2b9054aa-30e3-484a-989d-f6b1e93c3b45}, !- Water Inlet Node Name
  {b0f9da56-1e8f-4103-8432-a4d402a5381e}, !- Water Outlet Node Name
  ,                                       !- Air Inlet Node Name
  ,                                       !- Air Outlet Node Name
  ,                                       !- Performance Input Method
  ,                                       !- Rated Capacity {W}
  ,                                       !- Rated Inlet Water Temperature {C}
  ,                                       !- Rated Inlet Air Temperature {C}
  ,                                       !- Rated Outlet Water Temperature {C}
  ,                                       !- Rated Outlet Air Temperature {C}
  ;                                       !- Rated Ratio for Air and Water Convection

OS:Node,
  {6000038b-cb6e-4c54-9dd4-1ac366ac8b64}, !- Handle
  Node 13,                                !- Name
  {b0f9da56-1e8f-4103-8432-a4d402a5381e}, !- Inlet Port
  {2e3d72f2-1aa1-474e-9558-b447dc2c75c1}; !- Outlet Port

OS:Connection,
  {2b9054aa-30e3-484a-989d-f6b1e93c3b45}, !- Handle
  {3217cbf0-b14b-4fc7-8436-0cfa1e5a5693}, !- Name
  {2c1308bb-ac76-4208-be38-fc6533113721}, !- Source Object
  3,                                      !- Outlet Port
  {0eda8c6b-b34e-4b64-9122-5908e2150bf0}, !- Target Object
  5;                                      !- Inlet Port

OS:Connection,
  {b0f9da56-1e8f-4103-8432-a4d402a5381e}, !- Handle
  {ffd990cf-514e-4c46-a0b9-99c0fcb73a64}, !- Name
  {0eda8c6b-b34e-4b64-9122-5908e2150bf0}, !- Source Object
  6,                                      !- Outlet Port
  {6000038b-cb6e-4c54-9dd4-1ac366ac8b64}, !- Target Object
  2;                                      !- Inlet Port

OS:Connection,
  {2e3d72f2-1aa1-474e-9558-b447dc2c75c1}, !- Handle
  {b2bfb41f-af9e-4f7c-99d0-ecf5263bc4fa}, !- Name
  {6000038b-cb6e-4c54-9dd4-1ac366ac8b64}, !- Source Object
  3,                                      !- Outlet Port
  {ff23825d-7556-4d88-8146-f33de6e1186d}, !- Target Object
  3;                                      !- Inlet Port

OS:Controller:WaterCoil,
  {80ccf583-022c-408f-b5d9-8a11aac3f046}, !- Handle
  Controller Water Coil 1,                !- Name
  {0eda8c6b-b34e-4b64-9122-5908e2150bf0}, !- Water Coil Name
  ,                                       !- Control Variable
  Normal,                                 !- Action
  ,                                       !- Actuator Variable
  ,                                       !- Sensor Node Name
  ,                                       !- Actuator Node Name
  ,                                       !- Controller Convergence Tolerance {deltaC}
  ,                                       !- Maximum Actuated Flow {m3/s}
  0;                                      !- Minimum Actuated Flow {m3/s}

