
OS:Version,
  {bcdb9f1b-f1c4-40bf-96a2-a90090b5705a}, !- Handle
  2.4.0;                                  !- Version Identifier

! TrackingID:#[GWpo83]
OS:AirLoopHVAC,
  {a652cedf-6a54-4627-90c6-5ac4fc921891}, !- Handle
  Air Loop HVAC 1,                        !- Name
  ,                                       !- Controller List Name
  {b925dc52-d7e3-49f8-9611-7bc182b77ccb}, !- Availability Schedule
  {e9776f00-55c1-4c4d-a74c-fdf5aed4abe7}, !- Availability Manager List Name
  AutoSize,                               !- Design Supply Air Flow Rate {m3/s}
  ,                                       !- Branch List Name
  ,                                       !- Connector List Name
  {44a1c86a-d0dd-4c53-8a11-0b6403d27539}, !- Supply Side Inlet Node Name
  {876cbcfb-6930-4fbd-bfe2-2b04b634af88}, !- Demand Side Outlet Node Name
  {71229520-b934-46de-a105-36f8af7c5ad8}, !- Demand Side Inlet Node A
  {4af65657-901f-4b64-a255-97c6eae75f65}, !- Supply Side Outlet Node A
  ,                                       !- Demand Side Inlet Node B
  ,                                       !- Supply Side Outlet Node B
  ,                                       !- Return Air Bypass Flow Temperature Setpoint Schedule Name
  {cda7e771-58aa-4ef9-8478-46248362a7d5}, !- Demand Mixer Name
  {11f09971-8b9d-44ca-9410-505f73c2870b}, !- Demand Splitter A Name
  ,                                       !- Demand Splitter B Name
  ;                                       !- Supply Splitter Name

OS:Node,
  {abcf22b8-4f21-4e75-973d-2249eb32a5c4}, !- Handle
  Node 1,                                 !- Name
  {44a1c86a-d0dd-4c53-8a11-0b6403d27539}, !- Inlet Port
  {e6e21351-ab84-4375-912f-0121f1cae7a8}; !- Outlet Port

OS:Node,
  {b729ff5e-e2aa-4848-baa0-a0611a9486c2}, !- Handle
  Node 2,                                 !- Name
  {8fe109ae-0e70-400b-a002-0a2e6604a1d4}, !- Inlet Port
  {4af65657-901f-4b64-a255-97c6eae75f65}; !- Outlet Port

OS:Connection,
  {44a1c86a-d0dd-4c53-8a11-0b6403d27539}, !- Handle
  {d2759790-87a3-452d-8b6f-198c56e3b759}, !- Name
  {a652cedf-6a54-4627-90c6-5ac4fc921891}, !- Source Object
  8,                                      !- Outlet Port
  {abcf22b8-4f21-4e75-973d-2249eb32a5c4}, !- Target Object
  2;                                      !- Inlet Port

OS:Connection,
  {4af65657-901f-4b64-a255-97c6eae75f65}, !- Handle
  {4f652f07-3d7f-4e01-ad94-939aea6711c4}, !- Name
  {b729ff5e-e2aa-4848-baa0-a0611a9486c2}, !- Source Object
  3,                                      !- Outlet Port
  {a652cedf-6a54-4627-90c6-5ac4fc921891}, !- Target Object
  11;                                     !- Inlet Port

OS:Node,
  {ab76b4be-579b-4f4d-9516-bb0069fcad0e}, !- Handle
  Node 3,                                 !- Name
  {71229520-b934-46de-a105-36f8af7c5ad8}, !- Inlet Port
  {afd2cf37-30c4-48a8-af4d-56d3c336cc42}; !- Outlet Port

OS:Node,
  {2ac689a0-b8af-4995-bc60-2602728a5834}, !- Handle
  Node 4,                                 !- Name
  {6b6a1ab5-2d41-490f-bf11-b4b13481011d}, !- Inlet Port
  {876cbcfb-6930-4fbd-bfe2-2b04b634af88}; !- Outlet Port

OS:Node,
  {37bc4aca-5ead-4c0c-a9b6-08b6deb49c0f}, !- Handle
  Node 5,                                 !- Name
  {aa72f1f4-d5ab-47d9-834d-f50180ef5336}, !- Inlet Port
  {9a3faed8-3600-4431-95ff-3d6af306deea}; !- Outlet Port

OS:Connection,
  {71229520-b934-46de-a105-36f8af7c5ad8}, !- Handle
  {2dfa944f-621b-4a52-9d8c-2af7ca8e5a03}, !- Name
  {a652cedf-6a54-4627-90c6-5ac4fc921891}, !- Source Object
  10,                                     !- Outlet Port
  {ab76b4be-579b-4f4d-9516-bb0069fcad0e}, !- Target Object
  2;                                      !- Inlet Port

OS:Connection,
  {876cbcfb-6930-4fbd-bfe2-2b04b634af88}, !- Handle
  {dd192f1a-5e13-4872-802b-29172cc77f95}, !- Name
  {2ac689a0-b8af-4995-bc60-2602728a5834}, !- Source Object
  3,                                      !- Outlet Port
  {a652cedf-6a54-4627-90c6-5ac4fc921891}, !- Target Object
  9;                                      !- Inlet Port

OS:AirLoopHVAC:ZoneSplitter,
  {11f09971-8b9d-44ca-9410-505f73c2870b}, !- Handle
  Air Loop HVAC Zone Splitter 1,          !- Name
  {afd2cf37-30c4-48a8-af4d-56d3c336cc42}, !- Inlet Node Name
  {f36f0f97-849e-4305-80f9-65d44008b250}, !- Outlet Node Name 1
  {f3d80724-05dd-4022-94b1-586efd78fc13}; !- Outlet Node Name 2

OS:AirLoopHVAC:ZoneMixer,
  {cda7e771-58aa-4ef9-8478-46248362a7d5}, !- Handle
  Air Loop HVAC Zone Mixer 1,             !- Name
  {6b6a1ab5-2d41-490f-bf11-b4b13481011d}, !- Outlet Node Name
  {f5d94dee-51cc-4d16-86bd-986755b5fd7b}, !- Inlet Node Name 1
  {5026fbaf-1d8d-4f38-9da7-e8e53cd4463e}; !- Inlet Node Name 2

OS:Connection,
  {afd2cf37-30c4-48a8-af4d-56d3c336cc42}, !- Handle
  {3006e26a-76bf-4ade-8eec-daf86d22c1c3}, !- Name
  {ab76b4be-579b-4f4d-9516-bb0069fcad0e}, !- Source Object
  3,                                      !- Outlet Port
  {11f09971-8b9d-44ca-9410-505f73c2870b}, !- Target Object
  2;                                      !- Inlet Port

OS:Connection,
  {6b6a1ab5-2d41-490f-bf11-b4b13481011d}, !- Handle
  {cd7a1462-8116-45e5-9ee7-f4ce857b235d}, !- Name
  {cda7e771-58aa-4ef9-8478-46248362a7d5}, !- Source Object
  2,                                      !- Outlet Port
  {2ac689a0-b8af-4995-bc60-2602728a5834}, !- Target Object
  2;                                      !- Inlet Port

OS:Sizing:System,
  {21d4be4e-517d-4ead-9064-15f13f2c77eb}, !- Handle
  {a652cedf-6a54-4627-90c6-5ac4fc921891}, !- AirLoop Name
  Sensible,                               !- Type of Load to Size On
  Autosize,                               !- Design Outdoor Air Flow Rate {m3/s}
  0.3,                                    !- Minimum System Air Flow Ratio
  7,                                      !- Preheat Design Temperature {C}
  0.008,                                  !- Preheat Design Humidity Ratio {kg-H2O/kg-Air}
  12.8,                                   !- Precool Design Temperature {C}
  0.008,                                  !- Precool Design Humidity Ratio {kg-H2O/kg-Air}
  12.8,                                   !- Central Cooling Design Supply Air Temperature {C}
  16.7,                                   !- Central Heating Design Supply Air Temperature {C}
  NonCoincident,                          !- Sizing Option
  Yes,                                    !- 100% Outdoor Air in Cooling
  Yes,                                    !- 100% Outdoor Air in Heating
  0.0085,                                 !- Central Cooling Design Supply Air Humidity Ratio {kg-H2O/kg-Air}
  0.008,                                  !- Central Heating Design Supply Air Humidity Ratio {kg-H2O/kg-Air}
  DesignDay,                              !- Cooling Design Air Flow Method
  0,                                      !- Cooling Design Air Flow Rate {m3/s}
  DesignDay,                              !- Heating Design Air Flow Method
  0,                                      !- Heating Design Air Flow Rate {m3/s}
  ZoneSum,                                !- System Outdoor Air Method
  1,                                      !- Zone Maximum Outdoor Air Fraction {dimensionless}
  0.0099676501,                           !- Cooling Supply Air Flow Rate Per Floor Area {m3/s-m2}
  1,                                      !- Cooling Fraction of Autosized Cooling Supply Air Flow Rate
  3.9475456e-005,                         !- Cooling Supply Air Flow Rate Per Unit Cooling Capacity {m3/s-W}
  0.0099676501,                           !- Heating Supply Air Flow Rate Per Floor Area {m3/s-m2}
  1,                                      !- Heating Fraction of Autosized Heating Supply Air Flow Rate
  1,                                      !- Heating Fraction of Autosized Cooling Supply Air Flow Rate
  3.1588213e-005,                         !- Heating Supply Air Flow Rate Per Unit Heating Capacity {m3/s-W}
  CoolingDesignCapacity,                  !- Cooling Design Capacity Method
  autosize,                               !- Cooling Design Capacity {W}
  234.7,                                  !- Cooling Design Capacity Per Floor Area {W/m2}
  1,                                      !- Fraction of Autosized Cooling Design Capacity
  HeatingDesignCapacity,                  !- Heating Design Capacity Method
  autosize,                               !- Heating Design Capacity {W}
  157,                                    !- Heating Design Capacity Per Floor Area {W/m2}
  1,                                      !- Fraction of Autosized Heating Design Capacity
  OnOff;                                  !- Central Cooling Capacity Control Method

OS:Schedule:Constant,
  {b925dc52-d7e3-49f8-9611-7bc182b77ccb}, !- Handle
  Always On Discrete,                     !- Name
  {c33c1aaf-edd6-4913-a3c2-07992c71df97}, !- Schedule Type Limits Name
  1;                                      !- Value

OS:ScheduleTypeLimits,
  {c33c1aaf-edd6-4913-a3c2-07992c71df97}, !- Handle
  OnOff,                                  !- Name
  0,                                      !- Lower Limit Value
  1,                                      !- Upper Limit Value
  Discrete,                               !- Numeric Type
  Availability;                           !- Unit Type

OS:AvailabilityManagerAssignmentList,
  {e9776f00-55c1-4c4d-a74c-fdf5aed4abe7}, !- Handle
  Air Loop HVAC 1 AvailabilityManagerAssignmentList; !- Name

! TrackingID:#[ZDvbOl]
OS:Fan:VariableVolume,
  {87c31124-ef76-4992-8560-3ff5a3b3acd4}, !- Handle
  Fan Variable Volume 1,                  !- Name
  {b925dc52-d7e3-49f8-9611-7bc182b77ccb}, !- Availability Schedule Name
  0.6045,                                 !- Fan Efficiency
  1017.592,                               !- Pressure Rise {Pa}
  Autosize,                               !- Maximum Flow Rate {m3/s}
  FixedFlowRate,                          !- Fan Power Minimum Flow Rate Input Method
  0,                                      !- Fan Power Minimum Flow Fraction
  0,                                      !- Fan Power Minimum Air Flow Rate {m3/s}
  0.93,                                   !- Motor Efficiency
  1,                                      !- Motor In Airstream Fraction
  0.040759894,                            !- Fan Power Coefficient 1
  0.08804497,                             !- Fan Power Coefficient 2
  -0.07292612,                            !- Fan Power Coefficient 3
  0.943739823,                            !- Fan Power Coefficient 4
  0,                                      !- Fan Power Coefficient 5
  {e6e21351-ab84-4375-912f-0121f1cae7a8}, !- Air Inlet Node Name
  {8fe109ae-0e70-400b-a002-0a2e6604a1d4}, !- Air Outlet Node Name
  ;                                       !- End-Use Subcategory

OS:Connection,
  {e6e21351-ab84-4375-912f-0121f1cae7a8}, !- Handle
  {9932d27c-96b0-462e-bffb-3298997a60ae}, !- Name
  {abcf22b8-4f21-4e75-973d-2249eb32a5c4}, !- Source Object
  3,                                      !- Outlet Port
  {87c31124-ef76-4992-8560-3ff5a3b3acd4}, !- Target Object
  16;                                     !- Inlet Port

OS:Connection,
  {8fe109ae-0e70-400b-a002-0a2e6604a1d4}, !- Handle
  {84adec13-59e7-4ae6-ae35-8290c296cf4d}, !- Name
  {87c31124-ef76-4992-8560-3ff5a3b3acd4}, !- Source Object
  17,                                     !- Outlet Port
  {b729ff5e-e2aa-4848-baa0-a0611a9486c2}, !- Target Object
  2;                                      !- Inlet Port

! TrackingID:#[Fa3InT]
OS:ThermalZone,
  {6642ce6b-97b7-429d-a2ae-f70433287873}, !- Handle
  zone_0,                                 !- Name
  ,                                       !- Multiplier
  ,                                       !- Ceiling Height {m}
  ,                                       !- Volume {m3}
  ,                                       !- Floor Area {m2}
  ,                                       !- Zone Inside Convection Algorithm
  ,                                       !- Zone Outside Convection Algorithm
  ,                                       !- Zone Conditioning Equipment List Name
  {927c81b7-38a2-4426-a256-b9b2b870ead1}, !- Zone Air Inlet Port List
  {e80a070b-f768-40b4-9dac-7a16c48af68d}, !- Zone Air Exhaust Port List
  {bd608396-398a-4370-8767-652cc3bf4b0d}, !- Zone Air Node Name
  {1a813a3c-ac16-4a86-bf91-2bd1e0ab23bd}, !- Zone Return Air Node Name
  ,                                       !- Primary Daylighting Control Name
  ,                                       !- Fraction of Zone Controlled by Primary Daylighting Control
  ,                                       !- Secondary Daylighting Control Name
  ,                                       !- Fraction of Zone Controlled by Secondary Daylighting Control
  ,                                       !- Illuminance Map Name
  ,                                       !- Group Rendering Name
  ,                                       !- Thermostat Name
  No;                                     !- Use Ideal Air Loads

OS:Node,
  {cefe3a2e-bd6b-4978-a0f3-364e6cf100c2}, !- Handle
  Node 6,                                 !- Name
  {bd608396-398a-4370-8767-652cc3bf4b0d}, !- Inlet Port
  ;                                       !- Outlet Port

OS:Connection,
  {bd608396-398a-4370-8767-652cc3bf4b0d}, !- Handle
  {7bdf8575-e46b-4655-918a-4d350647f74b}, !- Name
  {6642ce6b-97b7-429d-a2ae-f70433287873}, !- Source Object
  11,                                     !- Outlet Port
  {cefe3a2e-bd6b-4978-a0f3-364e6cf100c2}, !- Target Object
  2;                                      !- Inlet Port

OS:PortList,
  {927c81b7-38a2-4426-a256-b9b2b870ead1}, !- Handle
  {f2c7a7ec-4b3e-468f-956a-6aaa31ec1ed2}, !- Name
  {6642ce6b-97b7-429d-a2ae-f70433287873}, !- HVAC Component
  {9a3faed8-3600-4431-95ff-3d6af306deea}; !- Port 1

OS:PortList,
  {e80a070b-f768-40b4-9dac-7a16c48af68d}, !- Handle
  {1317f764-0ece-45b6-ab13-a208e36aa595}, !- Name
  {6642ce6b-97b7-429d-a2ae-f70433287873}; !- HVAC Component

OS:Sizing:Zone,
  {9826c555-784b-4249-b3b5-8b8ce3a6a1fb}, !- Handle
  {6642ce6b-97b7-429d-a2ae-f70433287873}, !- Zone or ZoneList Name
  SupplyAirTemperature,                   !- Zone Cooling Design Supply Air Temperature Input Method
  14,                                     !- Zone Cooling Design Supply Air Temperature {C}
  11.11,                                  !- Zone Cooling Design Supply Air Temperature Difference {deltaC}
  SupplyAirTemperature,                   !- Zone Heating Design Supply Air Temperature Input Method
  40,                                     !- Zone Heating Design Supply Air Temperature {C}
  11.11,                                  !- Zone Heating Design Supply Air Temperature Difference {deltaC}
  0.0085,                                 !- Zone Cooling Design Supply Air Humidity Ratio {kg-H2O/kg-air}
  0.008,                                  !- Zone Heating Design Supply Air Humidity Ratio {kg-H2O/kg-air}
  ,                                       !- Zone Heating Sizing Factor
  ,                                       !- Zone Cooling Sizing Factor
  DesignDay,                              !- Cooling Design Air Flow Method
  ,                                       !- Cooling Design Air Flow Rate {m3/s}
  ,                                       !- Cooling Minimum Air Flow per Zone Floor Area {m3/s-m2}
  ,                                       !- Cooling Minimum Air Flow {m3/s}
  ,                                       !- Cooling Minimum Air Flow Fraction
  DesignDay,                              !- Heating Design Air Flow Method
  ,                                       !- Heating Design Air Flow Rate {m3/s}
  ,                                       !- Heating Maximum Air Flow per Zone Floor Area {m3/s-m2}
  ,                                       !- Heating Maximum Air Flow {m3/s}
  ,                                       !- Heating Maximum Air Flow Fraction
  ,                                       !- Design Zone Air Distribution Effectiveness in Cooling Mode
  ,                                       !- Design Zone Air Distribution Effectiveness in Heating Mode
  No,                                     !- Account for Dedicated Outdoor Air System
  NeutralSupplyAir,                       !- Dedicated Outdoor Air System Control Strategy
  autosize,                               !- Dedicated Outdoor Air Low Setpoint Temperature for Design {C}
  autosize;                               !- Dedicated Outdoor Air High Setpoint Temperature for Design {C}

OS:ZoneHVAC:EquipmentList,
  {bbd58064-56d2-438d-ba8d-9e3d552e02fd}, !- Handle
  Zone HVAC Equipment List 1,             !- Name
  {6642ce6b-97b7-429d-a2ae-f70433287873}, !- Thermal Zone
  {2cee0bfb-f9cd-4229-b95d-13ee09878fba}, !- Zone Equipment 1
  1,                                      !- Zone Equipment Cooling Sequence 1
  1;                                      !- Zone Equipment Heating or No-Load Sequence 1

! TrackingID:#[rTH9oe]
OS:Sizing:Zone,
  {35b590d0-2536-4943-9797-07afb94f9333}, !- Handle
  {6642ce6b-97b7-429d-a2ae-f70433287873}, !- Zone or ZoneList Name
  SupplyAirTemperature,                   !- Zone Cooling Design Supply Air Temperature Input Method
  14,                                     !- Zone Cooling Design Supply Air Temperature {C}
  11.11,                                  !- Zone Cooling Design Supply Air Temperature Difference {deltaC}
  SupplyAirTemperature,                   !- Zone Heating Design Supply Air Temperature Input Method
  40,                                     !- Zone Heating Design Supply Air Temperature {C}
  11.11,                                  !- Zone Heating Design Supply Air Temperature Difference {deltaC}
  0.0085,                                 !- Zone Cooling Design Supply Air Humidity Ratio {kg-H2O/kg-air}
  0.008,                                  !- Zone Heating Design Supply Air Humidity Ratio {kg-H2O/kg-air}
  ,                                       !- Zone Heating Sizing Factor
  ,                                       !- Zone Cooling Sizing Factor
  DesignDay,                              !- Cooling Design Air Flow Method
  ,                                       !- Cooling Design Air Flow Rate {m3/s}
  ,                                       !- Cooling Minimum Air Flow per Zone Floor Area {m3/s-m2}
  ,                                       !- Cooling Minimum Air Flow {m3/s}
  ,                                       !- Cooling Minimum Air Flow Fraction
  DesignDay,                              !- Heating Design Air Flow Method
  ,                                       !- Heating Design Air Flow Rate {m3/s}
  ,                                       !- Heating Maximum Air Flow per Zone Floor Area {m3/s-m2}
  ,                                       !- Heating Maximum Air Flow {m3/s}
  ,                                       !- Heating Maximum Air Flow Fraction
  ,                                       !- Design Zone Air Distribution Effectiveness in Cooling Mode
  ,                                       !- Design Zone Air Distribution Effectiveness in Heating Mode
  No,                                     !- Account for Dedicated Outdoor Air System
  NeutralSupplyAir,                       !- Dedicated Outdoor Air System Control Strategy
  autosize,                               !- Dedicated Outdoor Air Low Setpoint Temperature for Design {C}
  autosize;                               !- Dedicated Outdoor Air High Setpoint Temperature for Design {C}

! TrackingID:#[fj9ADT]
OS:Coil:Heating:Water,
  {45af5341-ba44-4efc-ae01-2321d0d793b9}, !- Handle
  Coil Heating Water 1,                   !- Name
  {b925dc52-d7e3-49f8-9611-7bc182b77ccb}, !- Availability Schedule Name
  ,                                       !- U-Factor Times Area Value {W/K}
  ,                                       !- Maximum Water Flow Rate {m3/s}
  {0525adbb-194a-467e-aad5-87f1e65aea9a}, !- Water Inlet Node Name
  {b0c04bf6-568b-4288-9054-c19273045d48}, !- Water Outlet Node Name
  ,                                       !- Air Inlet Node Name
  ,                                       !- Air Outlet Node Name
  ,                                       !- Performance Input Method
  ,                                       !- Rated Capacity {W}
  85.5,                                   !- Rated Inlet Water Temperature {C}
  ,                                       !- Rated Inlet Air Temperature {C}
  ,                                       !- Rated Outlet Water Temperature {C}
  ,                                       !- Rated Outlet Air Temperature {C}
  ;                                       !- Rated Ratio for Air and Water Convection

! TrackingID:#[HaQMnl]
OS:AirTerminal:SingleDuct:VAV:Reheat,
  {2cee0bfb-f9cd-4229-b95d-13ee09878fba}, !- Handle
  Air Terminal Single Duct VAV Reheat 1,  !- Name
  {b925dc52-d7e3-49f8-9611-7bc182b77ccb}, !- Availability Schedule Name
  {f88535c9-dfa7-4127-9b81-c4d100669581}, !- Air Inlet Node Name
  AutoSize,                               !- Maximum Air Flow Rate {m3/s}
  Constant,                               !- Zone Minimum Air Flow Input Method
  0.3,                                    !- Constant Minimum Air Flow Fraction
  0,                                      !- Fixed Minimum Air Flow Rate {m3/s}
  ,                                       !- Minimum Air Flow Fraction Schedule Name
  {45af5341-ba44-4efc-ae01-2321d0d793b9}, !- Reheat Coil Name
  AutoSize,                               !- Maximum Hot Water or Steam Flow Rate {m3/s}
  0,                                      !- Minimum Hot Water or Steam Flow Rate {m3/s}
  {aa72f1f4-d5ab-47d9-834d-f50180ef5336}, !- Air Outlet Node Name
  0.001,                                  !- Convergence Tolerance
  Normal,                                 !- Damper Heating Action
  AutoSize,                               !- Maximum Flow per Zone Floor Area During Reheat {m3/s-m2}
  AutoSize,                               !- Maximum Flow Fraction During Reheat
  35,                                     !- Maximum Reheat Air Temperature {C}
  No;                                     !- Control For Outdoor Air

OS:Node,
  {9d569fc0-0a7b-4d9a-bc11-0a22e5551a98}, !- Handle
  Node 7,                                 !- Name
  {1a813a3c-ac16-4a86-bf91-2bd1e0ab23bd}, !- Inlet Port
  {f5d94dee-51cc-4d16-86bd-986755b5fd7b}; !- Outlet Port

OS:Connection,
  {9a3faed8-3600-4431-95ff-3d6af306deea}, !- Handle
  {3b11cd81-f92f-44a6-8da0-276e1690f421}, !- Name
  {37bc4aca-5ead-4c0c-a9b6-08b6deb49c0f}, !- Source Object
  3,                                      !- Outlet Port
  {927c81b7-38a2-4426-a256-b9b2b870ead1}, !- Target Object
  3;                                      !- Inlet Port

OS:Connection,
  {1a813a3c-ac16-4a86-bf91-2bd1e0ab23bd}, !- Handle
  {5cb8ec6d-dba4-464a-aa37-7c85d2e2e46e}, !- Name
  {6642ce6b-97b7-429d-a2ae-f70433287873}, !- Source Object
  12,                                     !- Outlet Port
  {9d569fc0-0a7b-4d9a-bc11-0a22e5551a98}, !- Target Object
  2;                                      !- Inlet Port

OS:Connection,
  {f5d94dee-51cc-4d16-86bd-986755b5fd7b}, !- Handle
  {f22b057c-7fa2-46e9-a5b8-95652d4f28db}, !- Name
  {9d569fc0-0a7b-4d9a-bc11-0a22e5551a98}, !- Source Object
  3,                                      !- Outlet Port
  {cda7e771-58aa-4ef9-8478-46248362a7d5}, !- Target Object
  3;                                      !- Inlet Port

OS:Node,
  {ca26525a-5b5d-4742-8e76-b034f5d95a2b}, !- Handle
  Node 8,                                 !- Name
  {f36f0f97-849e-4305-80f9-65d44008b250}, !- Inlet Port
  {f88535c9-dfa7-4127-9b81-c4d100669581}; !- Outlet Port

OS:Connection,
  {f36f0f97-849e-4305-80f9-65d44008b250}, !- Handle
  {4d2619ce-aecd-4fc4-a653-5dfa5e8931a5}, !- Name
  {11f09971-8b9d-44ca-9410-505f73c2870b}, !- Source Object
  3,                                      !- Outlet Port
  {ca26525a-5b5d-4742-8e76-b034f5d95a2b}, !- Target Object
  2;                                      !- Inlet Port

OS:Connection,
  {f88535c9-dfa7-4127-9b81-c4d100669581}, !- Handle
  {357b523a-aa02-4752-8b53-3a387ac7993b}, !- Name
  {ca26525a-5b5d-4742-8e76-b034f5d95a2b}, !- Source Object
  3,                                      !- Outlet Port
  {2cee0bfb-f9cd-4229-b95d-13ee09878fba}, !- Target Object
  3;                                      !- Inlet Port

OS:Connection,
  {aa72f1f4-d5ab-47d9-834d-f50180ef5336}, !- Handle
  {c02ee6e1-8371-4d29-9919-d40e90063807}, !- Name
  {2cee0bfb-f9cd-4229-b95d-13ee09878fba}, !- Source Object
  12,                                     !- Outlet Port
  {37bc4aca-5ead-4c0c-a9b6-08b6deb49c0f}, !- Target Object
  2;                                      !- Inlet Port

! TrackingID:#[tO6tYq]
OS:ThermalZone,
  {da2a9671-58f2-4c20-a38e-6a9d71c54855}, !- Handle
  zone_1,                                 !- Name
  ,                                       !- Multiplier
  ,                                       !- Ceiling Height {m}
  ,                                       !- Volume {m3}
  ,                                       !- Floor Area {m2}
  ,                                       !- Zone Inside Convection Algorithm
  ,                                       !- Zone Outside Convection Algorithm
  ,                                       !- Zone Conditioning Equipment List Name
  {341b2f54-cad2-4ccf-bddd-8f6c3ec229b9}, !- Zone Air Inlet Port List
  {731b42bf-bada-4c09-85ae-90e2acda9241}, !- Zone Air Exhaust Port List
  {2b7ecfbb-07ee-4d0d-a16d-d5de63d32b9f}, !- Zone Air Node Name
  {cc166d5f-0ad5-4e47-ba7d-c603f9c5feea}, !- Zone Return Air Node Name
  ,                                       !- Primary Daylighting Control Name
  ,                                       !- Fraction of Zone Controlled by Primary Daylighting Control
  ,                                       !- Secondary Daylighting Control Name
  ,                                       !- Fraction of Zone Controlled by Secondary Daylighting Control
  ,                                       !- Illuminance Map Name
  ,                                       !- Group Rendering Name
  ,                                       !- Thermostat Name
  No;                                     !- Use Ideal Air Loads

OS:Node,
  {236281d8-1ef0-4ade-9cc7-fa8c7eaf4a66}, !- Handle
  Node 9,                                 !- Name
  {2b7ecfbb-07ee-4d0d-a16d-d5de63d32b9f}, !- Inlet Port
  ;                                       !- Outlet Port

OS:Connection,
  {2b7ecfbb-07ee-4d0d-a16d-d5de63d32b9f}, !- Handle
  {243a3fa8-c7b4-497f-9040-16ecb5b01d40}, !- Name
  {da2a9671-58f2-4c20-a38e-6a9d71c54855}, !- Source Object
  11,                                     !- Outlet Port
  {236281d8-1ef0-4ade-9cc7-fa8c7eaf4a66}, !- Target Object
  2;                                      !- Inlet Port

OS:PortList,
  {341b2f54-cad2-4ccf-bddd-8f6c3ec229b9}, !- Handle
  {9d6069dc-50f1-46f9-99a2-c4636650b8c6}, !- Name
  {da2a9671-58f2-4c20-a38e-6a9d71c54855}, !- HVAC Component
  {e7706099-8d83-4b60-8301-58c5402cd092}; !- Port 1

OS:PortList,
  {731b42bf-bada-4c09-85ae-90e2acda9241}, !- Handle
  {33236a97-d1f6-4d73-9dc5-f113401c13e6}, !- Name
  {da2a9671-58f2-4c20-a38e-6a9d71c54855}; !- HVAC Component

OS:Sizing:Zone,
  {27ab7b9a-c38c-4cae-9d0d-2014e3429709}, !- Handle
  {da2a9671-58f2-4c20-a38e-6a9d71c54855}, !- Zone or ZoneList Name
  SupplyAirTemperature,                   !- Zone Cooling Design Supply Air Temperature Input Method
  14,                                     !- Zone Cooling Design Supply Air Temperature {C}
  11.11,                                  !- Zone Cooling Design Supply Air Temperature Difference {deltaC}
  SupplyAirTemperature,                   !- Zone Heating Design Supply Air Temperature Input Method
  40,                                     !- Zone Heating Design Supply Air Temperature {C}
  11.11,                                  !- Zone Heating Design Supply Air Temperature Difference {deltaC}
  0.0085,                                 !- Zone Cooling Design Supply Air Humidity Ratio {kg-H2O/kg-air}
  0.008,                                  !- Zone Heating Design Supply Air Humidity Ratio {kg-H2O/kg-air}
  ,                                       !- Zone Heating Sizing Factor
  ,                                       !- Zone Cooling Sizing Factor
  DesignDay,                              !- Cooling Design Air Flow Method
  ,                                       !- Cooling Design Air Flow Rate {m3/s}
  ,                                       !- Cooling Minimum Air Flow per Zone Floor Area {m3/s-m2}
  ,                                       !- Cooling Minimum Air Flow {m3/s}
  ,                                       !- Cooling Minimum Air Flow Fraction
  DesignDay,                              !- Heating Design Air Flow Method
  ,                                       !- Heating Design Air Flow Rate {m3/s}
  ,                                       !- Heating Maximum Air Flow per Zone Floor Area {m3/s-m2}
  ,                                       !- Heating Maximum Air Flow {m3/s}
  ,                                       !- Heating Maximum Air Flow Fraction
  ,                                       !- Design Zone Air Distribution Effectiveness in Cooling Mode
  ,                                       !- Design Zone Air Distribution Effectiveness in Heating Mode
  No,                                     !- Account for Dedicated Outdoor Air System
  NeutralSupplyAir,                       !- Dedicated Outdoor Air System Control Strategy
  autosize,                               !- Dedicated Outdoor Air Low Setpoint Temperature for Design {C}
  autosize;                               !- Dedicated Outdoor Air High Setpoint Temperature for Design {C}

OS:ZoneHVAC:EquipmentList,
  {d8795376-1cdb-4b8b-b879-0c9a8e1182f9}, !- Handle
  Zone HVAC Equipment List 2,             !- Name
  {da2a9671-58f2-4c20-a38e-6a9d71c54855}, !- Thermal Zone
  {f10a6282-54ba-4e41-ab4b-3b7e18c3e45b}, !- Zone Equipment 1
  1,                                      !- Zone Equipment Cooling Sequence 1