
OS:Version,
  {3881ddc6-7d2e-47f0-a519-02ca1fe1cb40}, !- Handle
  2.4.0;                                  !- Version Identifier

OS:AirLoopHVAC,
  {a1a7ade9-fcf7-4223-919f-78a98953f8f7}, !- Handle
  Air Loop HVAC 1,                        !- Name
  ,                                       !- Controller List Name
  {43243f74-f453-4b8e-bb59-1c44f71a1e28}, !- Availability Schedule
  {e3d34127-0b77-4a2b-b705-1131b4d812ed}, !- Availability Manager List Name
  AutoSize,                               !- Design Supply Air Flow Rate {m3/s}
  ,                                       !- Branch List Name
  ,                                       !- Connector List Name
  {a0e80408-1992-4d36-a882-42aa264861fa}, !- Supply Side Inlet Node Name
  {83065ad1-2c8f-453f-8b5b-18883f80f372}, !- Demand Side Outlet Node Name
  {668757e6-df2e-42d2-9c4f-3527ac6a0278}, !- Demand Side Inlet Node A
  {35d6b54f-e056-43f3-b836-4ac4df9c796b}, !- Supply Side Outlet Node A
  ,                                       !- Demand Side Inlet Node B
  ,                                       !- Supply Side Outlet Node B
  ,                                       !- Return Air Bypass Flow Temperature Setpoint Schedule Name
  {36e7274f-a37f-41d4-b5d0-026c808b9cd3}, !- Demand Mixer Name
  {840ea924-bf61-46a7-87d7-7a84cccd158e}, !- Demand Splitter A Name
  ,                                       !- Demand Splitter B Name
  ;                                       !- Supply Splitter Name

OS:Node,
  {6ee8dc02-9e05-4f53-9bd0-b5d01ba3e83a}, !- Handle
  Node 1,                                 !- Name
  {a0e80408-1992-4d36-a882-42aa264861fa}, !- Inlet Port
  {42c55a70-1c39-4a04-8c8d-21fbf9a27e46}; !- Outlet Port

OS:Node,
  {6d71dbe7-4e21-4e02-a184-50731f485d55}, !- Handle
  Node 2,                                 !- Name
  {ee4fda79-afc4-4967-b3e0-268e363f6d4f}, !- Inlet Port
  {35d6b54f-e056-43f3-b836-4ac4df9c796b}; !- Outlet Port

OS:Connection,
  {a0e80408-1992-4d36-a882-42aa264861fa}, !- Handle
  {35ecd3e4-c536-4dbf-9d40-442b495213b8}, !- Name
  {a1a7ade9-fcf7-4223-919f-78a98953f8f7}, !- Source Object
  8,                                      !- Outlet Port
  {6ee8dc02-9e05-4f53-9bd0-b5d01ba3e83a}, !- Target Object
  2;                                      !- Inlet Port

OS:Connection,
  {35d6b54f-e056-43f3-b836-4ac4df9c796b}, !- Handle
  {e7f1e84f-c939-40c0-8bbc-dd8cd4056438}, !- Name
  {6d71dbe7-4e21-4e02-a184-50731f485d55}, !- Source Object
  3,                                      !- Outlet Port
  {a1a7ade9-fcf7-4223-919f-78a98953f8f7}, !- Target Object
  11;                                     !- Inlet Port

OS:Node,
  {b847e53a-f89e-4974-b927-e001faa16da2}, !- Handle
  Node 3,                                 !- Name
  {668757e6-df2e-42d2-9c4f-3527ac6a0278}, !- Inlet Port
  {f9550a83-7f98-42de-8543-74a6d659711a}; !- Outlet Port

OS:Node,
  {02d96de3-fd9d-4b4a-8ecc-d6c2784bdfc1}, !- Handle
  Node 4,                                 !- Name
  {1b4b05b4-cfe1-49d9-a756-ccd14110ea91}, !- Inlet Port
  {83065ad1-2c8f-453f-8b5b-18883f80f372}; !- Outlet Port

OS:Node,
  {50e84a65-d3b3-4b40-a0eb-ebdf6894fe3d}, !- Handle
  Node 5,                                 !- Name
  {eca5a0fd-77e5-47c4-9183-c99767a0581d}, !- Inlet Port
  {2fa3c83c-ff37-4325-afb5-e1d590198e52}; !- Outlet Port

OS:Connection,
  {668757e6-df2e-42d2-9c4f-3527ac6a0278}, !- Handle
  {2b2af2fb-e384-4fad-8247-efa6705839b2}, !- Name
  {a1a7ade9-fcf7-4223-919f-78a98953f8f7}, !- Source Object
  10,                                     !- Outlet Port
  {b847e53a-f89e-4974-b927-e001faa16da2}, !- Target Object
  2;                                      !- Inlet Port

OS:Connection,
  {83065ad1-2c8f-453f-8b5b-18883f80f372}, !- Handle
  {6980308f-bda8-4a42-b6cc-4a063611c76f}, !- Name
  {02d96de3-fd9d-4b4a-8ecc-d6c2784bdfc1}, !- Source Object
  3,                                      !- Outlet Port
  {a1a7ade9-fcf7-4223-919f-78a98953f8f7}, !- Target Object
  9;                                      !- Inlet Port

OS:AirLoopHVAC:ZoneSplitter,
  {840ea924-bf61-46a7-87d7-7a84cccd158e}, !- Handle
  Air Loop HVAC Zone Splitter 1,          !- Name
  {f9550a83-7f98-42de-8543-74a6d659711a}, !- Inlet Node Name
  {eca5a0fd-77e5-47c4-9183-c99767a0581d}; !- Outlet Node Name 1

OS:AirLoopHVAC:ZoneMixer,
  {36e7274f-a37f-41d4-b5d0-026c808b9cd3}, !- Handle
  Air Loop HVAC Zone Mixer 1,             !- Name
  {1b4b05b4-cfe1-49d9-a756-ccd14110ea91}, !- Outlet Node Name
  {2fa3c83c-ff37-4325-afb5-e1d590198e52}; !- Inlet Node Name 1

OS:Connection,
  {f9550a83-7f98-42de-8543-74a6d659711a}, !- Handle
  {122332bc-adda-4eaf-bcdf-e7c72dd184e9}, !- Name
  {b847e53a-f89e-4974-b927-e001faa16da2}, !- Source Object
  3,                                      !- Outlet Port
  {840ea924-bf61-46a7-87d7-7a84cccd158e}, !- Target Object
  2;                                      !- Inlet Port

OS:Connection,
  {eca5a0fd-77e5-47c4-9183-c99767a0581d}, !- Handle
  {aaf0fb36-a061-4be0-98ba-0142fbf79b75}, !- Name
  {840ea924-bf61-46a7-87d7-7a84cccd158e}, !- Source Object
  3,                                      !- Outlet Port
  {50e84a65-d3b3-4b40-a0eb-ebdf6894fe3d}, !- Target Object
  2;                                      !- Inlet Port

OS:Connection,
  {2fa3c83c-ff37-4325-afb5-e1d590198e52}, !- Handle
  {1fbc5609-0088-4de9-ae6e-e68cf2497859}, !- Name
  {50e84a65-d3b3-4b40-a0eb-ebdf6894fe3d}, !- Source Object
  3,                                      !- Outlet Port
  {36e7274f-a37f-41d4-b5d0-026c808b9cd3}, !- Target Object
  3;                                      !- Inlet Port

OS:Connection,
  {1b4b05b4-cfe1-49d9-a756-ccd14110ea91}, !- Handle
  {7b031fb4-1b36-49a6-98a4-eab75a66f876}, !- Name
  {36e7274f-a37f-41d4-b5d0-026c808b9cd3}, !- Source Object
  2,                                      !- Outlet Port
  {02d96de3-fd9d-4b4a-8ecc-d6c2784bdfc1}, !- Target Object
  2;                                      !- Inlet Port

OS:Sizing:System,
  {e183d1ab-e77c-4fbd-8cd2-488dbfe7370b}, !- Handle
  {a1a7ade9-fcf7-4223-919f-78a98953f8f7}, !- AirLoop Name
  Sensible,                               !- Type of Load to Size On
  Autosize,                               !- Design Outdoor Air Flow Rate {m3/s}
  0.3,                                    !- Minimum System Air Flow Ratio
  7,                                      !- Preheat Design Temperature {C}
  0.008,                                  !- Preheat Design Humidity Ratio {kg-H2O/kg-Air}
  12.8,                                   !- Precool Design Temperature {C}
  0.008,                                  !- Precool Design Humidity Ratio {kg-H2O/kg-Air}
  12.8,                                   !- Central Cooling Design Supply Air Temperature {C}
  16.7,                                   !- Central Heating Design Supply Air Temperature {C}
  NonCoincident,                          !- Sizing Option
  Yes,                                    !- 100% Outdoor Air in Cooling
  Yes,                                    !- 100% Outdoor Air in Heating
  0.0085,                                 !- Central Cooling Design Supply Air Humidity Ratio {kg-H2O/kg-Air}
  0.008,                                  !- Central Heating Design Supply Air Humidity Ratio {kg-H2O/kg-Air}
  DesignDay,                              !- Cooling Design Air Flow Method
  0,                                      !- Cooling Design Air Flow Rate {m3/s}
  DesignDay,                              !- Heating Design Air Flow Method
  0,                                      !- Heating Design Air Flow Rate {m3/s}
  ZoneSum,                                !- System Outdoor Air Method
  1,                                      !- Zone Maximum Outdoor Air Fraction {dimensionless}
  0.0099676501,                           !- Cooling Supply Air Flow Rate Per Floor Area {m3/s-m2}
  1,                                      !- Cooling Fraction of Autosized Cooling Supply Air Flow Rate
  3.9475456e-005,                         !- Cooling Supply Air Flow Rate Per Unit Cooling Capacity {m3/s-W}
  0.0099676501,                           !- Heating Supply Air Flow Rate Per Floor Area {m3/s-m2}
  1,                                      !- Heating Fraction of Autosized Heating Supply Air Flow Rate
  1,                                      !- Heating Fraction of Autosized Cooling Supply Air Flow Rate
  3.1588213e-005,                         !- Heating Supply Air Flow Rate Per Unit Heating Capacity {m3/s-W}
  CoolingDesignCapacity,                  !- Cooling Design Capacity Method
  autosize,                               !- Cooling Design Capacity {W}
  234.7,                                  !- Cooling Design Capacity Per Floor Area {W/m2}
  1,                                      !- Fraction of Autosized Cooling Design Capacity
  HeatingDesignCapacity,                  !- Heating Design Capacity Method
  autosize,                               !- Heating Design Capacity {W}
  157,                                    !- Heating Design Capacity Per Floor Area {W/m2}
  1,                                      !- Fraction of Autosized Heating Design Capacity
  OnOff;                                  !- Central Cooling Capacity Control Method

OS:Schedule:Constant,
  {43243f74-f453-4b8e-bb59-1c44f71a1e28}, !- Handle
  Always On Discrete,                     !- Name
  {ae983fc0-40e5-458a-83f5-92e4a339cec5}, !- Schedule Type Limits Name
  1;                                      !- Value

OS:ScheduleTypeLimits,
  {ae983fc0-40e5-458a-83f5-92e4a339cec5}, !- Handle
  OnOff,                                  !- Name
  0,                                      !- Lower Limit Value
  1,                                      !- Upper Limit Value
  Discrete,                               !- Numeric Type
  Availability;                           !- Unit Type

OS:AvailabilityManagerAssignmentList,
  {e3d34127-0b77-4a2b-b705-1131b4d812ed}, !- Handle
  Air Loop HVAC 1 AvailabilityManagerAssignmentList; !- Name

OS:Controller:OutdoorAir,
  {ecdea42f-9b82-4267-94d8-905c49bc8ebb}, !- Handle
  Controller Outdoor Air 1,               !- Name
  ,                                       !- Relief Air Outlet Node Name
  ,                                       !- Return Air Node Name
  ,                                       !- Mixed Air Node Name
  ,                                       !- Actuator Node Name
  0,                                      !- Minimum Outdoor Air Flow Rate {m3/s}
  Autosize,                               !- Maximum Outdoor Air Flow Rate {m3/s}
  NoEconomizer,                           !- Economizer Control Type
  ModulateFlow,                           !- Economizer Control Action Type
  28,                                     !- Economizer Maximum Limit Dry-Bulb Temperature {C}
  64000,                                  !- Economizer Maximum Limit Enthalpy {J/kg}
  ,                                       !- Economizer Maximum Limit Dewpoint Temperature {C}
  ,                                       !- Electronic Enthalpy Limit Curve Name
  -100,                                   !- Economizer Minimum Limit Dry-Bulb Temperature {C}
  NoLockout,                              !- Lockout Type
  FixedMinimum,                           !- Minimum Limit Type
  ,                                       !- Minimum Outdoor Air Schedule Name
  ,                                       !- Minimum Fraction of Outdoor Air Schedule Name
  ,                                       !- Maximum Fraction of Outdoor Air Schedule Name
  {5e5e42d9-94c2-4adf-a86d-064f30c8968f}, !- Controller Mechanical Ventilation
  ,                                       !- Time of Day Economizer Control Schedule Name
  No,                                     !- High Humidity Control
  ,                                       !- Humidistat Control Zone Name
  ,                                       !- High Humidity Outdoor Air Flow Ratio
  ,                                       !- Control High Indoor Humidity Based on Outdoor Humidity Ratio
  BypassWhenWithinEconomizerLimits;       !- Heat Recovery Bypass Control Type

OS:Controller:MechanicalVentilation,
  {5e5e42d9-94c2-4adf-a86d-064f30c8968f}, !- Handle
  Controller Mechanical Ventilation 1,    !- Name
  {43243f74-f453-4b8e-bb59-1c44f71a1e28}, !- Availability Schedule
  ,                                       !- Demand Controlled Ventilation
  ZoneSum;                                !- System Outdoor Air Method

OS:Connection,
  {42c55a70-1c39-4a04-8c8d-21fbf9a27e46}, !- Handle
  {861f8aec-0988-4433-8335-8606c44235a9}, !- Name
  {6ee8dc02-9e05-4f53-9bd0-b5d01ba3e83a}, !- Source Object
  3,                                      !- Outlet Port
  ,                                       !- Target Object
  8;                                      !- Inlet Port

OS:Connection,
  {ee4fda79-afc4-4967-b3e0-268e363f6d4f}, !- Handle
  {b7987fca-ddb6-4bf6-8819-8aae04c9534b}, !- Name
  ,                                       !- Source Object
  5,                                      !- Outlet Port
  {6d71dbe7-4e21-4e02-a184-50731f485d55}, !- Target Object
  2;                                      !- Inlet Port

