
OS:Version,
  {cf936714-e827-4a57-8a70-2f4ca0e14c4d}, !- Handle
  2.4.0;                                  !- Version Identifier

OS:Schedule:Constant,
  {53062e4e-4a74-4c9d-87bd-942ebc379cdf}, !- Handle
  Always On Discrete,                     !- Name
  {699e979e-884b-4847-b588-c5defe664db7}, !- Schedule Type Limits Name
  1;                                      !- Value

OS:ScheduleTypeLimits,
  {699e979e-884b-4847-b588-c5defe664db7}, !- Handle
  OnOff,                                  !- Name
  0,                                      !- Lower Limit Value
  1,                                      !- Upper Limit Value
  Discrete,                               !- Numeric Type
  Availability;                           !- Unit Type

! TrackingID:#[9twqOk]
OS:Sizing:Zone,
  {8470f42c-d4a7-4e44-9ef6-ae5c250af551}, !- Handle
  ,                                       !- Zone or ZoneList Name
  SupplyAirTemperature,                   !- Zone Cooling Design Supply Air Temperature Input Method
  14,                                     !- Zone Cooling Design Supply Air Temperature {C}
  11.11,                                  !- Zone Cooling Design Supply Air Temperature Difference {deltaC}
  SupplyAirTemperature,                   !- Zone Heating Design Supply Air Temperature Input Method
  40,                                     !- Zone Heating Design Supply Air Temperature {C}
  11.11,                                  !- Zone Heating Design Supply Air Temperature Difference {deltaC}
  0.0085,                                 !- Zone Cooling Design Supply Air Humidity Ratio {kg-H2O/kg-air}
  0.008,                                  !- Zone Heating Design Supply Air Humidity Ratio {kg-H2O/kg-air}
  ,                                       !- Zone Heating Sizing Factor
  ,                                       !- Zone Cooling Sizing Factor
  DesignDay,                              !- Cooling Design Air Flow Method
  ,                                       !- Cooling Design Air Flow Rate {m3/s}
  ,                                       !- Cooling Minimum Air Flow per Zone Floor Area {m3/s-m2}
  ,                                       !- Cooling Minimum Air Flow {m3/s}
  ,                                       !- Cooling Minimum Air Flow Fraction
  DesignDay,                              !- Heating Design Air Flow Method
  ,                                       !- Heating Design Air Flow Rate {m3/s}
  ,                                       !- Heating Maximum Air Flow per Zone Floor Area {m3/s-m2}
  ,                                       !- Heating Maximum Air Flow {m3/s}
  ,                                       !- Heating Maximum Air Flow Fraction
  ,                                       !- Design Zone Air Distribution Effectiveness in Cooling Mode
  ,                                       !- Design Zone Air Distribution Effectiveness in Heating Mode
  No,                                     !- Account for Dedicated Outdoor Air System
  NeutralSupplyAir,                       !- Dedicated Outdoor Air System Control Strategy
  autosize,                               !- Dedicated Outdoor Air Low Setpoint Temperature for Design {C}
  autosize;                               !- Dedicated Outdoor Air High Setpoint Temperature for Design {C}

OS:Sizing:Zone,
  {631233cb-abb9-4a52-bfd7-9c66d67776ca}, !- Handle
  ,                                       !- Zone or ZoneList Name
  SupplyAirTemperature,                   !- Zone Cooling Design Supply Air Temperature Input Method
  14,                                     !- Zone Cooling Design Supply Air Temperature {C}
  11.11,                                  !- Zone Cooling Design Supply Air Temperature Difference {deltaC}
  SupplyAirTemperature,                   !- Zone Heating Design Supply Air Temperature Input Method
  40,                                     !- Zone Heating Design Supply Air Temperature {C}
  11.11,                                  !- Zone Heating Design Supply Air Temperature Difference {deltaC}
  0.0085,                                 !- Zone Cooling Design Supply Air Humidity Ratio {kg-H2O/kg-air}
  0.008,                                  !- Zone Heating Design Supply Air Humidity Ratio {kg-H2O/kg-air}
  ,                                       !- Zone Heating Sizing Factor
  ,                                       !- Zone Cooling Sizing Factor
  DesignDay,                              !- Cooling Design Air Flow Method
  ,                                       !- Cooling Design Air Flow Rate {m3/s}
  ,                                       !- Cooling Minimum Air Flow per Zone Floor Area {m3/s-m2}
  ,                                       !- Cooling Minimum Air Flow {m3/s}
  ,                                       !- Cooling Minimum Air Flow Fraction
  DesignDay,                              !- Heating Design Air Flow Method
  ,                                       !- Heating Design Air Flow Rate {m3/s}
  ,                                       !- Heating Maximum Air Flow per Zone Floor Area {m3/s-m2}
  ,                                       !- Heating Maximum Air Flow {m3/s}
  ,                                       !- Heating Maximum Air Flow Fraction
  ,                                       !- Design Zone Air Distribution Effectiveness in Cooling Mode
  ,                                       !- Design Zone Air Distribution Effectiveness in Heating Mode
  No,                                     !- Account for Dedicated Outdoor Air System
  NeutralSupplyAir,                       !- Dedicated Outdoor Air System Control Strategy
  autosize,                               !- Dedicated Outdoor Air Low Setpoint Temperature for Design {C}
  autosize;                               !- Dedicated Outdoor Air High Setpoint Temperature for Design {C}

! TrackingID:#[p0lP3R]
OS:Sizing:Zone,
  {9ac24309-5ca8-4afb-9969-f6a46e551283}, !- Handle
  ,                                       !- Zone or ZoneList Name
  SupplyAirTemperature,                   !- Zone Cooling Design Supply Air Temperature Input Method
  14,                                     !- Zone Cooling Design Supply Air Temperature {C}
  11.11,                                  !- Zone Cooling Design Supply Air Temperature Difference {deltaC}
  SupplyAirTemperature,                   !- Zone Heating Design Supply Air Temperature Input Method
  40,                                     !- Zone Heating Design Supply Air Temperature {C}
  11.11,                                  !- Zone Heating Design Supply Air Temperature Difference {deltaC}
  0.0085,                                 !- Zone Cooling Design Supply Air Humidity Ratio {kg-H2O/kg-air}
  0.008,                                  !- Zone Heating Design Supply Air Humidity Ratio {kg-H2O/kg-air}
  ,                                       !- Zone Heating Sizing Factor
  ,                                       !- Zone Cooling Sizing Factor
  DesignDay,                              !- Cooling Design Air Flow Method
  ,                                       !- Cooling Design Air Flow Rate {m3/s}
  ,                                       !- Cooling Minimum Air Flow per Zone Floor Area {m3/s-m2}
  ,                                       !- Cooling Minimum Air Flow {m3/s}
  ,                                       !- Cooling Minimum Air Flow Fraction
  DesignDay,                              !- Heating Design Air Flow Method
  ,                                       !- Heating Design Air Flow Rate {m3/s}
  ,                                       !- Heating Maximum Air Flow per Zone Floor Area {m3/s-m2}
  ,                                       !- Heating Maximum Air Flow {m3/s}
  ,                                       !- Heating Maximum Air Flow Fraction
  ,                                       !- Design Zone Air Distribution Effectiveness in Cooling Mode
  ,                                       !- Design Zone Air Distribution Effectiveness in Heating Mode
  No,                                     !- Account for Dedicated Outdoor Air System
  NeutralSupplyAir,                       !- Dedicated Outdoor Air System Control Strategy
  autosize,                               !- Dedicated Outdoor Air Low Setpoint Temperature for Design {C}
  autosize;                               !- Dedicated Outdoor Air High Setpoint Temperature for Design {C}

! TrackingID:#[qC1Hjo]
OS:Sizing:Zone,
  {bebefee4-d555-4012-8aa5-44ef56c64826}, !- Handle
  ,                                       !- Zone or ZoneList Name
  SupplyAirTemperature,                   !- Zone Cooling Design Supply Air Temperature Input Method
  14,                                     !- Zone Cooling Design Supply Air Temperature {C}
  11.11,                                  !- Zone Cooling Design Supply Air Temperature Difference {deltaC}
  SupplyAirTemperature,                   !- Zone Heating Design Supply Air Temperature Input Method
  40,                                     !- Zone Heating Design Supply Air Temperature {C}
  11.11,                                  !- Zone Heating Design Supply Air Temperature Difference {deltaC}
  0.0085,                                 !- Zone Cooling Design Supply Air Humidity Ratio {kg-H2O/kg-air}
  0.008,                                  !- Zone Heating Design Supply Air Humidity Ratio {kg-H2O/kg-air}
  ,                                       !- Zone Heating Sizing Factor
  ,                                       !- Zone Cooling Sizing Factor
  DesignDay,                              !- Cooling Design Air Flow Method
  ,                                       !- Cooling Design Air Flow Rate {m3/s}
  ,                                       !- Cooling Minimum Air Flow per Zone Floor Area {m3/s-m2}
  ,                                       !- Cooling Minimum Air Flow {m3/s}
  ,                                       !- Cooling Minimum Air Flow Fraction
  DesignDay,                              !- Heating Design Air Flow Method
  ,                                       !- Heating Design Air Flow Rate {m3/s}
  ,                                       !- Heating Maximum Air Flow per Zone Floor Area {m3/s-m2}
  ,                                       !- Heating Maximum Air Flow {m3/s}
  ,                                       !- Heating Maximum Air Flow Fraction
  ,                                       !- Design Zone Air Distribution Effectiveness in Cooling Mode
  ,                                       !- Design Zone Air Distribution Effectiveness in Heating Mode
  No,                                     !- Account for Dedicated Outdoor Air System
  NeutralSupplyAir,                       !- Dedicated Outdoor Air System Control Strategy
  autosize,                               !- Dedicated Outdoor Air Low Setpoint Temperature for Design {C}
  autosize;                               !- Dedicated Outdoor Air High Setpoint Temperature for Design {C}

! TrackingID:#[9lB2tp]
OS:Sizing:Zone,
  {2eb28aa2-8e62-4be8-ad76-205db70aa74a}, !- Handle
  ,                                       !- Zone or ZoneList Name
  SupplyAirTemperature,                   !- Zone Cooling Design Supply Air Temperature Input Method
  14,                                     !- Zone Cooling Design Supply Air Temperature {C}
  11.11,                                  !- Zone Cooling Design Supply Air Temperature Difference {deltaC}
  SupplyAirTemperature,                   !- Zone Heating Design Supply Air Temperature Input Method
  40,                                     !- Zone Heating Design Supply Air Temperature {C}
  11.11,                                  !- Zone Heating Design Supply Air Temperature Difference {deltaC}
  0.0085,                                 !- Zone Cooling Design Supply Air Humidity Ratio {kg-H2O/kg-air}
  0.008,                                  !- Zone Heating Design Supply Air Humidity Ratio {kg-H2O/kg-air}
  ,                                       !- Zone Heating Sizing Factor
  ,                                       !- Zone Cooling Sizing Factor
  DesignDay,                              !- Cooling Design Air Flow Method
  ,                                       !- Cooling Design Air Flow Rate {m3/s}
  ,                                       !- Cooling Minimum Air Flow per Zone Floor Area {m3/s-m2}
  ,                                       !- Cooling Minimum Air Flow {m3/s}
  ,                                       !- Cooling Minimum Air Flow Fraction
  DesignDay,                              !- Heating Design Air Flow Method
  ,                                       !- Heating Design Air Flow Rate {m3/s}
  ,                                       !- Heating Maximum Air Flow per Zone Floor Area {m3/s-m2}
  ,                                       !- Heating Maximum Air Flow {m3/s}
  ,                                       !- Heating Maximum Air Flow Fraction
  ,                                       !- Design Zone Air Distribution Effectiveness in Cooling Mode
  ,                                       !- Design Zone Air Distribution Effectiveness in Heating Mode
  No,                                     !- Account for Dedicated Outdoor Air System
  NeutralSupplyAir,                       !- Dedicated Outdoor Air System Control Strategy
  autosize,                               !- Dedicated Outdoor Air Low Setpoint Temperature for Design {C}
  autosize;                               !- Dedicated Outdoor Air High Setpoint Temperature for Design {C}

OS:Node,
  {696e29cf-20f2-41da-9975-dad6534b86cd}, !- Handle
  Node 3,                                 !- Name
  {6d16fdcd-ff25-4513-8782-a84e2afd1378}, !- Inlet Port
  {3833055d-4f17-460e-81ae-11b7b7aacb86}; !- Outlet Port

OS:Node,
  {f1b34244-0fe3-41de-a1b6-46b99663f50b}, !- Handle
  Node 4,                                 !- Name
  {f4b147f9-aaec-47da-8cb0-fec3077c27bf}, !- Inlet Port
  {18971f4b-6efb-48f7-ab51-ec20066cd91f}; !- Outlet Port

OS:Node,
  {77586e50-ddce-43d0-ae76-391893fb9693}, !- Handle
  Node 5,                                 !- Name
  {f4722957-993f-410e-8e97-1d362b24b7bb}, !- Inlet Port
  ;                                       !- Outlet Port

OS:Connection,
  {6d16fdcd-ff25-4513-8782-a84e2afd1378}, !- Handle
  {12d14a29-44c9-4ae5-af3c-b92352dbdacb}, !- Name
  ,                                       !- Source Object
  10,                                     !- Outlet Port
  {696e29cf-20f2-41da-9975-dad6534b86cd}, !- Target Object
  2;                                      !- Inlet Port

OS:Connection,
  {18971f4b-6efb-48f7-ab51-ec20066cd91f}, !- Handle
  {27674cb4-34e0-454a-8a5f-9a2d74e7b2e2}, !- Name
  {f1b34244-0fe3-41de-a1b6-46b99663f50b}, !- Source Object
  3,                                      !- Outlet Port
  ,                                       !- Target Object
  9;                                      !- Inlet Port

OS:AirLoopHVAC:ZoneSplitter,
  {b7d0347d-75fa-493b-af78-04a61932e6db}, !- Handle
  Air Loop HVAC Zone Splitter 1,          !- Name
  {3833055d-4f17-460e-81ae-11b7b7aacb86}, !- Inlet Node Name
  {ea0cb430-6693-4bd3-abe3-89914c9e4a8d}, !- Outlet Node Name 1
  {afc71bce-08bd-4840-92ce-7c68b3b3f3da}; !- Outlet Node Name 2

OS:AirLoopHVAC:ZoneMixer,
  {b1f8897b-eb04-460c-90ea-35ea888769c0}, !- Handle
  Air Loop HVAC Zone Mixer 1,             !- Name
  {f4b147f9-aaec-47da-8cb0-fec3077c27bf}, !- Outlet Node Name
  {fbf32c80-646a-41d2-9640-6bf0c050760c}, !- Inlet Node Name 1
  {3561ea50-00b0-4295-a8c2-7f6ab635c0ba}; !- Inlet Node Name 2

OS:Connection,
  {3833055d-4f17-460e-81ae-11b7b7aacb86}, !- Handle
  {90ac7d36-e91c-46b2-a48c-2db8baceadc8}, !- Name
  {696e29cf-20f2-41da-9975-dad6534b86cd}, !- Source Object
  3,                                      !- Outlet Port
  {b7d0347d-75fa-493b-af78-04a61932e6db}, !- Target Object
  2;                                      !- Inlet Port

OS:Connection,
  {f4b147f9-aaec-47da-8cb0-fec3077c27bf}, !- Handle
  {55a02062-d381-4b3f-b0ce-d1f75b2faba2}, !- Name
  {b1f8897b-eb04-460c-90ea-35ea888769c0}, !- Source Object
  2,                                      !- Outlet Port
  {f1b34244-0fe3-41de-a1b6-46b99663f50b}, !- Target Object
  2;                                      !- Inlet Port

! TrackingID:#[yAhOvL]
OS:ThermalZone,
  {91c9e0ac-d77a-48db-ab98-7c2ef2fc2fc8}, !- Handle
  555_0,                                  !- Name
  ,                                       !- Multiplier
  ,                                       !- Ceiling Height {m}
  ,                                       !- Volume {m3}
  ,                                       !- Floor Area {m2}
  ,                                       !- Zone Inside Convection Algorithm
  ,                                       !- Zone Outside Convection Algorithm
  ,                                       !- Zone Conditioning Equipment List Name
  {a0adb497-4dfe-42e6-bffc-0c06dd0644b7}, !- Zone Air Inlet Port List
  {9d01d316-3ba8-44c6-8e0e-6fcd47e195db}, !- Zone Air Exhaust Port List
  {7dd5c221-a328-4c2c-a7a7-27d5427c8f8c}, !- Zone Air Node Name
  ,                                       !- Zone Return Air Node Name
  ,                                       !- Primary Daylighting Control Name
  ,                                       !- Fraction of Zone Controlled by Primary Daylighting Control
  ,                                       !- Secondary Daylighting Control Name
  ,                                       !- Fraction of Zone Controlled by Secondary Daylighting Control
  ,                                       !- Illuminance Map Name
  ,                                       !- Group Rendering Name
  ,                                       !- Thermostat Name
  No;                                     !- Use Ideal Air Loads

OS:Node,
  {5046c8ac-60ab-4114-9b27-b2c79cc7797e}, !- Handle
  Node 7,                                 !- Name
  {7dd5c221-a328-4c2c-a7a7-27d5427c8f8c}, !- Inlet Port
  ;                                       !- Outlet Port

OS:Connection,
  {7dd5c221-a328-4c2c-a7a7-27d5427c8f8c}, !- Handle
  {c08b9d41-b1be-4cfa-83f3-9a5a019df997}, !- Name
  {91c9e0ac-d77a-48db-ab98-7c2ef2fc2fc8}, !- Source Object
  11,                                     !- Outlet Port
  {5046c8ac-60ab-4114-9b27-b2c79cc7797e}, !- Target Object
  2;                                      !- Inlet Port

OS:PortList,
  {a0adb497-4dfe-42e6-bffc-0c06dd0644b7}, !- Handle
  {f2fc010d-0fb1-4d9c-8026-59bab72a43ad}, !- Name
  {91c9e0ac-d77a-48db-ab98-7c2ef2fc2fc8}; !- HVAC Component

OS:PortList,
  {9d01d316-3ba8-44c6-8e0e-6fcd47e195db}, !- Handle
  {608b881b-5a6e-4508-9029-510a47a0788d}, !- Name
  {91c9e0ac-d77a-48db-ab98-7c2ef2fc2fc8}; !- HVAC Component

OS:Sizing:Zone,
  {8b184387-4d1c-4c5d-8187-3aa537b9e4c4}, !- Handle
  {91c9e0ac-d77a-48db-ab98-7c2ef2fc2fc8}, !- Zone or ZoneList Name
  SupplyAirTemperature,                   !- Zone Cooling Design Supply Air Temperature Input Method
  14,                                     !- Zone Cooling Design Supply Air Temperature {C}
  11.11,                                  !- Zone Cooling Design Supply Air Temperature Difference {deltaC}
  SupplyAirTemperature,                   !- Zone Heating Design Supply Air Temperature Input Method
  40,                                     !- Zone Heating Design Supply Air Temperature {C}
  11.11,                                  !- Zone Heating Design Supply Air Temperature Difference {deltaC}
  0.0085,                                 !- Zone Cooling Design Supply Air Humidity Ratio {kg-H2O/kg-air}
  0.008,                                  !- Zone Heating Design Supply Air Humidity Ratio {kg-H2O/kg-air}
  ,                                       !- Zone Heating Sizing Factor
  ,                                       !- Zone Cooling Sizing Factor
  DesignDay,                              !- Cooling Design Air Flow Method
  ,                                       !- Cooling Design Air Flow Rate {m3/s}
  ,                                       !- Cooling Minimum Air Flow per Zone Floor Area {m3/s-m2}
  ,                                       !- Cooling Minimum Air Flow {m3/s}
  ,                                       !- Cooling Minimum Air Flow Fraction
  DesignDay,                              !- Heating Design Air Flow Method
  ,                                       !- Heating Design Air Flow Rate {m3/s}
  ,                                       !- Heating Maximum Air Flow per Zone Floor Area {m3/s-m2}
  ,                                       !- Heating Maximum Air Flow {m3/s}
  ,                                       !- Heating Maximum Air Flow Fraction
  ,                                       !- Design Zone Air Distribution Effectiveness in Cooling Mode
  ,                                       !- Design Zone Air Distribution Effectiveness in Heating Mode
  No,                                     !- Account for Dedicated Outdoor Air System
  NeutralSupplyAir,                       !- Dedicated Outdoor Air System Control Strategy
  autosize,                               !- Dedicated Outdoor Air Low Setpoint Temperature for Design {C}
  autosize;                               !- Dedicated Outdoor Air High Setpoint Temperature for Design {C}

OS:ZoneHVAC:EquipmentList,
  {4c0917ad-0ecf-4cc3-af0e-326c0d1a6fb4}, !- Handle
  Zone HVAC Equipment List 1,             !- Name
  {91c9e0ac-d77a-48db-ab98-7c2ef2fc2fc8}, !- Thermal Zone
  {e000a33e-16ca-4a2d-86de-10e822a71eb4}, !- Zone Equipment 1
  1,                                      !- Zone Equipment Cooling Sequence 1
  1;                                      !- Zone Equipment Heating or No-Load Sequence 1

! TrackingID:#[I8lsWN]
OS:Sizing:Zone,
  {efb2dfc9-b9f8-485c-9f63-339452b3b8f8}, !- Handle
  {91c9e0ac-d77a-48db-ab98-7c2ef2fc2fc8}, !- Zone or ZoneList Name
  SupplyAirTemperature,                   !- Zone Cooling Design Supply Air Temperature Input Method
  14,                                     !- Zone Cooling Design Supply Air Temperature {C}
  11.11,                                  !- Zone Cooling Design Supply Air Temperature Difference {deltaC}
  SupplyAirTemperature,                   !- Zone Heating Design Supply Air Temperature Input Method
  40,                                     !- Zone Heating Design Supply Air Temperature {C}
  11.11,                                  !- Zone Heating Design Supply Air Temperature Difference {deltaC}
  0.0085,                                 !- Zone Cooling Design Supply Air Humidity Ratio {kg-H2O/kg-air}
  0.008,                                  !- Zone Heating Design Supply Air Humidity Ratio {kg-H2O/kg-air}
  ,                                       !- Zone Heating Sizing Factor
  ,                                       !- Zone Cooling Sizing Factor
  DesignDay,                              !- Cooling Design Air Flow Method
  ,                                       !- Cooling Design Air Flow Rate {m3/s}
  ,                                       !- Cooling Minimum Air Flow per Zone Floor Area {m3/s-m2}
  ,                                       !- Cooling Minimum Air Flow {m3/s}
  ,                                       !- Cooling Minimum Air Flow Fraction
  DesignDay,                              !- Heating Design Air Flow Method
  ,                                       !- Heating Design Air Flow Rate {m3/s}
  ,                                       !- Heating Maximum Air Flow per Zone Floor Area {m3/s-m2}
  ,                                       !- Heating Maximum Air Flow {m3/s}
  ,                                       !- Heating Maximum Air Flow Fraction
  ,                                       !- Design Zone Air Distribution Effectiveness in Cooling Mode
  ,                                       !- Design Zone Air Distribution Effectiveness in Heating Mode
  No,                                     !- Account for Dedicated Outdoor Air System
  NeutralSupplyAir,                       !- Dedicated Outdoor Air System Control Strategy
  autosize,                               !- Dedicated Outdoor Air Low Setpoint Temperature for Design {C}
  autosize;                               !- Dedicated Outdoor Air High Setpoint Temperature for Design {C}

OS:Coil:Heating:Water,
  {ea50c801-122e-4479-8ecc-18a6329363a3}, !- Handle
  Coil Heating Water 2,                   !- Name
  {53062e4e-4a74-4c9d-87bd-942ebc379cdf}, !- Availability Schedule Name
  ,                                       !- U-Factor Times Area Value {W/K}
  ,                                       !- Maximum Water Flow Rate {m3/s}
  ,                                       !- Water Inlet Node Name
  ,                                       !- Water Outlet Node Name
  ,                                       !- Air Inlet Node Name
  ,                                       !- Air Outlet Node Name
  ,                                       !- Performance Input Method
  ,                                       !- Rated Capacity {W}
  ,                                       !- Rated Inlet Water Temperature {C}
  ,                                       !- Rated Inlet Air Temperature {C}
  ,                                       !- Rated Outlet Water Temperature {C}
  ,                                       !- Rated Outlet Air Temperature {C}
  ;                                       !- Rated Ratio for Air and Water Convection

! TrackingID:#[2MI2ar]
OS:AirTerminal:SingleDuct:VAV:Reheat,
  {e000a33e-16ca-4a2d-86de-10e822a71eb4}, !- Handle
  Air Terminal Single Duct VAV Reheat 1,  !- Name
  {53062e4e-4a74-4c9d-87bd-942ebc379cdf}, !- Availability Schedule Name
  {e345af2d-8683-4d49-bfe6-f0930652593e}, !- Air Inlet Node Name
  AutoSize,                               !- Maximum Air Flow Rate {m3/s}
  Constant,                               !- Zone Minimum Air Flow Input Method
  0.3,                                    !- Constant Minimum Air Flow Fraction
  0,                                      !- Fixed Minimum Air Flow Rate {m3/s}
  ,                                       !- Minimum Air Flow Fraction Schedule Name
  {7407e46f-2b83-45fe-8b5c-33dc1896b208}, !- Reheat Coil Name
  AutoSize,                               !- Maximum Hot Water or Steam Flow Rate {m3/s}
  0,                                      !- Minimum Hot Water or Steam Flow Rate {m3/s}
  {f4722957-993f-410e-8e97-1d362b24b7bb}, !- Air Outlet Node Name
  0.001,                                  !- Convergence Tolerance
  Normal,                                 !- Damper Heating Action
  AutoSize,                               !- Maximum Flow per Zone Floor Area During Reheat {m3/s-m2}
  AutoSize,                               !- Maximum Flow Fraction During Reheat
  35,                                     !- Maximum Reheat Air Temperature {C}
  No;                                     !- Control For Outdoor Air

! TrackingID:#[jyaNeM]
OS:Coil:Heating:Water,
  {7407e46f-2b83-45fe-8b5c-33dc1896b208}, !- Handle
  Coil Heating Water 3,                   !- Name
  {53062e4e-4a74-4c9d-87bd-942ebc379cdf}, !- Availability Schedule Name
  ,                                       !- U-Factor Times Area Value {W/K}
  ,                                       !- Maximum Water Flow Rate {m3/s}
  ,                                       !- Water Inlet Node Name
  ,                                       !- Water Outlet Node Name
  ,                                       !- Air Inlet Node Name
  ,                                       !- Air Outlet Node Name
  ,                                       !- Performance Input Method
  ,                                       !- Rated Capacity {W}
  ,                                       !- Rated Inlet Water Temperature {C}
  ,                                       !- Rated Inlet Air Temperature {C}
  ,                                       !- Rated Outlet Water Temperature {C}
  ,                                       !- Rated Outlet Air Temperature {C}
  ;                                       !- Rated Ratio for Air and Water Convection

OS:Node,
  {e020e898-77e3-4633-b7db-abe73b421edd}, !- Handle
  Node 8,                                 !- Name
  ,                                       !- Inlet Port
  {fbf32c80-646a-41d2-9640-6bf0c050760c}; !- Outlet Port

OS:Connection,
  {fbf32c80-646a-41d2-9640-6bf0c050760c}, !- Handle
  {1e8734d5-77ab-41c7-8b4c-ff08bc73a2ad}, !- Name
  {e020e898-77e3-4633-b7db-abe73b421edd}, !- Source Object
  3,                                      !- Outlet Port
  {b1f8897b-eb04-460c-90ea-35ea888769c0}, !- Target Object
  3;                                      !- Inlet Port

OS:Node,
  {5eb5ca05-8ef6-474d-bf2b-c417aaf1ece1}, !- Handle
  Node 9,                                 !- Name
  {ea0cb430-6693-4bd3-abe3-89914c9e4a8d}, !- Inlet Port
  {e345af2d-8683-4d49-bfe6-f0930652593e}; !- Outlet Port

OS:Connection,
  {ea0cb430-6693-4bd3-abe3-89914c9e4a8d}, !- Handle
  {79e2f7be-3bbf-4bfe-959a-35a84edd5b9a}, !- Name
  {b7d0347d-75fa-493b-af78-04a61932e6db}, !- Source Object
  3,                                      !- Outlet Port
  {5eb5ca05-8ef6-474d-bf2b-c417aaf1ece1}, !- Target Object
  2;                                      !- Inlet Port

OS:Connection,
  {e345af2d-8683-4d49-bfe6-f0930652593e}, !- Handle
  {f82293de-f0c1-46fa-857b-2a21c9238752}, !- Name
  {5eb5ca05-8ef6-474d-bf2b-c417aaf1ece1}, !- Source Object
  3,                                      !- Outlet Port
  {e000a33e-16ca-4a2d-86de-10e822a71eb4}, !- Target Object
  3;                                      !- Inlet Port

OS:Connection,
  {f4722957-993f-410e-8e97-1d362b24b7bb}, !- Handle
  {d51c7678-a3a4-4e2d-8f86-d721afcf4886}, !- Name
  {e000a33e-16ca-4a2d-86de-10e822a71eb4}, !- Source Object
  12,                                     !- Outlet Port
  {77586e50-ddce-43d0-ae76-391893fb9693}, !- Target Object
  2;                                      !- Inlet Port

! TrackingID:#[UHY8YE]
OS:ThermalZone,
  {75aa354b-9cf2-48c7-89ef-f60d7891f5a3}, !- Handle
  555_1,                                  !- Name
  ,                                       !- Multiplier
  ,                                       !- Ceiling Height {m}