
OS:Version,
  {73e43fa4-be02-43e1-bc37-d1169a920588}, !- Handle
  2.4.0;                                  !- Version Identifier

OS:AirLoopHVAC,
  {bfc750c4-0c0f-44f7-93fb-264619978445}, !- Handle
  Air Loop HVAC 1,                        !- Name
  ,                                       !- Controller List Name
  {d6553c53-b06f-4d41-af96-6b8b84b6a036}, !- Availability Schedule
  {4dc5c22d-fdf1-423a-9183-1f871cee6b22}, !- Availability Manager List Name
  AutoSize,                               !- Design Supply Air Flow Rate {m3/s}
  ,                                       !- Branch List Name
  ,                                       !- Connector List Name
  {39746334-6075-40b8-8b27-10362829b840}, !- Supply Side Inlet Node Name
  {553992c7-9aef-4164-98af-15c55f11ea09}, !- Demand Side Outlet Node Name
  {0d3c6880-d9e6-40f1-88a5-6bdf130e3c15}, !- Demand Side Inlet Node A
  {23176c4f-472e-4855-91a4-7a5d43372fbf}, !- Supply Side Outlet Node A
  ,                                       !- Demand Side Inlet Node B
  ,                                       !- Supply Side Outlet Node B
  ,                                       !- Return Air Bypass Flow Temperature Setpoint Schedule Name
  {78c6e2ab-7fb7-4fea-9e1c-e26321541b14}, !- Demand Mixer Name
  {d6f42a1e-78f9-4ed3-9f64-968e5214497f}, !- Demand Splitter A Name
  ,                                       !- Demand Splitter B Name
  ;                                       !- Supply Splitter Name

OS:Node,
  {7680281d-fc30-457f-bb33-7cf78a1a50c1}, !- Handle
  Node 1,                                 !- Name
  {39746334-6075-40b8-8b27-10362829b840}, !- Inlet Port
  {3d1106bb-95e0-4688-832b-3e2289b26952}; !- Outlet Port

OS:Node,
  {8b1484d9-33ff-4281-93ab-4f86e792c0fc}, !- Handle
  Node 2,                                 !- Name
  {9aadf994-6e9f-4bc6-8e0a-a2dbcb26392b}, !- Inlet Port
  {23176c4f-472e-4855-91a4-7a5d43372fbf}; !- Outlet Port

OS:Connection,
  {39746334-6075-40b8-8b27-10362829b840}, !- Handle
  {d21a37a9-19ad-4149-b72b-7a9836f4955a}, !- Name
  {bfc750c4-0c0f-44f7-93fb-264619978445}, !- Source Object
  8,                                      !- Outlet Port
  {7680281d-fc30-457f-bb33-7cf78a1a50c1}, !- Target Object
  2;                                      !- Inlet Port

OS:Connection,
  {23176c4f-472e-4855-91a4-7a5d43372fbf}, !- Handle
  {83d4ae53-d9a8-4ea7-9606-9d7a40c97851}, !- Name
  {8b1484d9-33ff-4281-93ab-4f86e792c0fc}, !- Source Object
  3,                                      !- Outlet Port
  {bfc750c4-0c0f-44f7-93fb-264619978445}, !- Target Object
  11;                                     !- Inlet Port

OS:Node,
  {b1bb979e-07b6-4c02-b07b-71e1d14852ee}, !- Handle
  Node 3,                                 !- Name
  {0d3c6880-d9e6-40f1-88a5-6bdf130e3c15}, !- Inlet Port
  {f973e17d-9c16-46dd-aeef-28c8ae423f45}; !- Outlet Port

OS:Node,
  {a0b8b386-0660-4384-99ff-adaf6122b945}, !- Handle
  Node 4,                                 !- Name
  {fbd20294-0741-4204-a8e2-9e8940b70c98}, !- Inlet Port
  {553992c7-9aef-4164-98af-15c55f11ea09}; !- Outlet Port

OS:Node,
  {f9ff57c8-23f7-4def-a251-a4a48b781340}, !- Handle
  Node 5,                                 !- Name
  {fab9c98d-d11b-43f7-af81-0221fd079ba0}, !- Inlet Port
  {d742ff7b-5f00-44a3-bd74-095e75ecb53f}; !- Outlet Port

OS:Connection,
  {0d3c6880-d9e6-40f1-88a5-6bdf130e3c15}, !- Handle
  {6be7670b-99f9-40ce-bd6b-c05748cd81f8}, !- Name
  {bfc750c4-0c0f-44f7-93fb-264619978445}, !- Source Object
  10,                                     !- Outlet Port
  {b1bb979e-07b6-4c02-b07b-71e1d14852ee}, !- Target Object
  2;                                      !- Inlet Port

OS:Connection,
  {553992c7-9aef-4164-98af-15c55f11ea09}, !- Handle
  {911fe4c8-11b4-49c6-835f-a1b37d8e33e4}, !- Name
  {a0b8b386-0660-4384-99ff-adaf6122b945}, !- Source Object
  3,                                      !- Outlet Port
  {bfc750c4-0c0f-44f7-93fb-264619978445}, !- Target Object
  9;                                      !- Inlet Port

OS:AirLoopHVAC:ZoneSplitter,
  {d6f42a1e-78f9-4ed3-9f64-968e5214497f}, !- Handle
  Air Loop HVAC Zone Splitter 1,          !- Name
  {f973e17d-9c16-46dd-aeef-28c8ae423f45}, !- Inlet Node Name
  {fab9c98d-d11b-43f7-af81-0221fd079ba0}; !- Outlet Node Name 1

OS:AirLoopHVAC:ZoneMixer,
  {78c6e2ab-7fb7-4fea-9e1c-e26321541b14}, !- Handle
  Air Loop HVAC Zone Mixer 1,             !- Name
  {fbd20294-0741-4204-a8e2-9e8940b70c98}, !- Outlet Node Name
  {d742ff7b-5f00-44a3-bd74-095e75ecb53f}; !- Inlet Node Name 1

OS:Connection,
  {f973e17d-9c16-46dd-aeef-28c8ae423f45}, !- Handle
  {144f94f6-8de6-46df-ada3-4d10e843456c}, !- Name
  {b1bb979e-07b6-4c02-b07b-71e1d14852ee}, !- Source Object
  3,                                      !- Outlet Port
  {d6f42a1e-78f9-4ed3-9f64-968e5214497f}, !- Target Object
  2;                                      !- Inlet Port

OS:Connection,
  {fab9c98d-d11b-43f7-af81-0221fd079ba0}, !- Handle
  {d3b9f631-6f36-45d8-a8d6-9929b7d31e6a}, !- Name
  {d6f42a1e-78f9-4ed3-9f64-968e5214497f}, !- Source Object
  3,                                      !- Outlet Port
  {f9ff57c8-23f7-4def-a251-a4a48b781340}, !- Target Object
  2;                                      !- Inlet Port

OS:Connection,
  {d742ff7b-5f00-44a3-bd74-095e75ecb53f}, !- Handle
  {4990324f-0db6-4803-af35-effdec08779c}, !- Name
  {f9ff57c8-23f7-4def-a251-a4a48b781340}, !- Source Object
  3,                                      !- Outlet Port
  {78c6e2ab-7fb7-4fea-9e1c-e26321541b14}, !- Target Object
  3;                                      !- Inlet Port

OS:Connection,
  {fbd20294-0741-4204-a8e2-9e8940b70c98}, !- Handle
  {398b8534-945c-4f52-9b04-b29ce305ce35}, !- Name
  {78c6e2ab-7fb7-4fea-9e1c-e26321541b14}, !- Source Object
  2,                                      !- Outlet Port
  {a0b8b386-0660-4384-99ff-adaf6122b945}, !- Target Object
  2;                                      !- Inlet Port

OS:Sizing:System,
  {d4205da7-d6fa-450b-b339-4cffdf29ea52}, !- Handle
  {bfc750c4-0c0f-44f7-93fb-264619978445}, !- AirLoop Name
  Sensible,                               !- Type of Load to Size On
  Autosize,                               !- Design Outdoor Air Flow Rate {m3/s}
  0.3,                                    !- Minimum System Air Flow Ratio
  7,                                      !- Preheat Design Temperature {C}
  0.008,                                  !- Preheat Design Humidity Ratio {kg-H2O/kg-Air}
  12.8,                                   !- Precool Design Temperature {C}
  0.008,                                  !- Precool Design Humidity Ratio {kg-H2O/kg-Air}
  12.8,                                   !- Central Cooling Design Supply Air Temperature {C}
  16.7,                                   !- Central Heating Design Supply Air Temperature {C}
  NonCoincident,                          !- Sizing Option
  Yes,                                    !- 100% Outdoor Air in Cooling
  Yes,                                    !- 100% Outdoor Air in Heating
  0.0085,                                 !- Central Cooling Design Supply Air Humidity Ratio {kg-H2O/kg-Air}
  0.008,                                  !- Central Heating Design Supply Air Humidity Ratio {kg-H2O/kg-Air}
  DesignDay,                              !- Cooling Design Air Flow Method
  0,                                      !- Cooling Design Air Flow Rate {m3/s}
  DesignDay,                              !- Heating Design Air Flow Method
  0,                                      !- Heating Design Air Flow Rate {m3/s}
  ZoneSum,                                !- System Outdoor Air Method
  1,                                      !- Zone Maximum Outdoor Air Fraction {dimensionless}
  0.0099676501,                           !- Cooling Supply Air Flow Rate Per Floor Area {m3/s-m2}
  1,                                      !- Cooling Fraction of Autosized Cooling Supply Air Flow Rate
  3.9475456e-005,                         !- Cooling Supply Air Flow Rate Per Unit Cooling Capacity {m3/s-W}
  0.0099676501,                           !- Heating Supply Air Flow Rate Per Floor Area {m3/s-m2}
  1,                                      !- Heating Fraction of Autosized Heating Supply Air Flow Rate
  1,                                      !- Heating Fraction of Autosized Cooling Supply Air Flow Rate
  3.1588213e-005,                         !- Heating Supply Air Flow Rate Per Unit Heating Capacity {m3/s-W}
  CoolingDesignCapacity,                  !- Cooling Design Capacity Method
  autosize,                               !- Cooling Design Capacity {W}
  234.7,                                  !- Cooling Design Capacity Per Floor Area {W/m2}
  1,                                      !- Fraction of Autosized Cooling Design Capacity
  HeatingDesignCapacity,                  !- Heating Design Capacity Method
  autosize,                               !- Heating Design Capacity {W}
  157,                                    !- Heating Design Capacity Per Floor Area {W/m2}
  1,                                      !- Fraction of Autosized Heating Design Capacity
  OnOff;                                  !- Central Cooling Capacity Control Method

OS:Schedule:Constant,
  {d6553c53-b06f-4d41-af96-6b8b84b6a036}, !- Handle
  Always On Discrete,                     !- Name
  {34074883-f632-4640-91a7-21be60e85026}, !- Schedule Type Limits Name
  1;                                      !- Value

OS:ScheduleTypeLimits,
  {34074883-f632-4640-91a7-21be60e85026}, !- Handle
  OnOff,                                  !- Name
  0,                                      !- Lower Limit Value
  1,                                      !- Upper Limit Value
  Discrete,                               !- Numeric Type
  Availability;                           !- Unit Type

OS:AvailabilityManagerAssignmentList,
  {4dc5c22d-fdf1-423a-9183-1f871cee6b22}, !- Handle
  Air Loop HVAC 1 AvailabilityManagerAssignmentList; !- Name

OS:Coil:Heating:Water,
  {0a8c3ae7-ef78-4d64-a7ba-10c28c5645ca}, !- Handle
  Coil Heating Water 1[#gqbB3W],          !- Name
  {d6553c53-b06f-4d41-af96-6b8b84b6a036}, !- Availability Schedule Name
  ,                                       !- U-Factor Times Area Value {W/K}
  ,                                       !- Maximum Water Flow Rate {m3/s}
  ,                                       !- Water Inlet Node Name
  ,                                       !- Water Outlet Node Name
  {3d1106bb-95e0-4688-832b-3e2289b26952}, !- Air Inlet Node Name
  {a0de90ba-1059-4e90-9d1f-e748f718a4e8}, !- Air Outlet Node Name
  ,                                       !- Performance Input Method
  ,                                       !- Rated Capacity {W}
  ,                                       !- Rated Inlet Water Temperature {C}
  ,                                       !- Rated Inlet Air Temperature {C}
  ,                                       !- Rated Outlet Water Temperature {C}
  ,                                       !- Rated Outlet Air Temperature {C}
  ;                                       !- Rated Ratio for Air and Water Convection

OS:Connection,
  {3d1106bb-95e0-4688-832b-3e2289b26952}, !- Handle
  {1e0d6885-8d81-44e4-8154-651a9078b8af}, !- Name
  {7680281d-fc30-457f-bb33-7cf78a1a50c1}, !- Source Object
  3,                                      !- Outlet Port
  {0a8c3ae7-ef78-4d64-a7ba-10c28c5645ca}, !- Target Object
  7;                                      !- Inlet Port

OS:Fan:ConstantVolume,
  {085336cd-f795-4ca1-9d9b-dc6f2d3342ec}, !- Handle
  Fan Constant Volume 1,                  !- Name
  {d6553c53-b06f-4d41-af96-6b8b84b6a036}, !- Availability Schedule Name
  ,                                       !- Fan Efficiency
  ,                                       !- Pressure Rise {Pa}
  AutoSize,                               !- Maximum Flow Rate {m3/s}
  ,                                       !- Motor Efficiency
  ,                                       !- Motor In Airstream Fraction
  {c0d70311-cda2-4f65-b6f0-b8f13faef0f4}, !- Air Inlet Node Name
  {9aadf994-6e9f-4bc6-8e0a-a2dbcb26392b}, !- Air Outlet Node Name
  ;                                       !- End-Use Subcategory

OS:Node,
  {7ea10c42-20ef-4d1a-974c-fb56e317ce87}, !- Handle
  Node 6,                                 !- Name
  {a0de90ba-1059-4e90-9d1f-e748f718a4e8}, !- Inlet Port
  {c0d70311-cda2-4f65-b6f0-b8f13faef0f4}; !- Outlet Port

OS:Connection,
  {a0de90ba-1059-4e90-9d1f-e748f718a4e8}, !- Handle
  {9926d525-f229-49ab-aa00-91aa56a6727f}, !- Name
  {0a8c3ae7-ef78-4d64-a7ba-10c28c5645ca}, !- Source Object
  8,                                      !- Outlet Port
  {7ea10c42-20ef-4d1a-974c-fb56e317ce87}, !- Target Object
  2;                                      !- Inlet Port

OS:Connection,
  {c0d70311-cda2-4f65-b6f0-b8f13faef0f4}, !- Handle
  {c5d9ed1e-26cd-4c65-8dc8-72bc8479a4a9}, !- Name
  {7ea10c42-20ef-4d1a-974c-fb56e317ce87}, !- Source Object
  3,                                      !- Outlet Port
  {085336cd-f795-4ca1-9d9b-dc6f2d3342ec}, !- Target Object
  8;                                      !- Inlet Port

OS:Connection,
  {9aadf994-6e9f-4bc6-8e0a-a2dbcb26392b}, !- Handle
  {e62328b4-6634-457b-ba69-0335de0a059b}, !- Name
  {085336cd-f795-4ca1-9d9b-dc6f2d3342ec}, !- Source Object
  9,                                      !- Outlet Port
  {8b1484d9-33ff-4281-93ab-4f86e792c0fc}, !- Target Object
  2;                                      !- Inlet Port

OS:PlantLoop,
  {d7d46034-dd95-417a-ade6-4e9dc6e14577}, !- Handle
  Plant Loop 1,                           !- Name
  Water,                                  !- Fluid Type
  0,                                      !- Glycol Concentration
  ,                                       !- User Defined Fluid Type
  ,                                       !- Plant Equipment Operation Heating Load
  ,                                       !- Plant Equipment Operation Cooling Load
  ,                                       !- Primary Plant Equipment Operation Scheme
  {333ccc2b-68dd-4f6e-befd-b4eb8f3a0122}, !- Loop Temperature Setpoint Node Name
  ,                                       !- Maximum Loop Temperature {C}
  ,                                       !- Minimum Loop Temperature {C}
  ,                                       !- Maximum Loop Flow Rate {m3/s}
  ,                                       !- Minimum Loop Flow Rate {m3/s}
  Autocalculate,                          !- Plant Loop Volume {m3}
  {72b812c1-6e14-45ba-a7cc-c89b2440809d}, !- Plant Side Inlet Node Name
  {c9e3f7b2-6d33-4c78-801a-b691f49bc9bf}, !- Plant Side Outlet Node Name
  ,                                       !- Plant Side Branch List Name
  {be7b21b9-6863-4cdc-8029-f9fbb3f7df7f}, !- Demand Side Inlet Node Name
  {1e16775a-23f5-4020-975d-0f81aad9c02a}, !- Demand Side Outlet Node Name
  ,                                       !- Demand Side Branch List Name
  ,                                       !- Demand Side Connector List Name
  Optimal,                                !- Load Distribution Scheme
  {4cbab8eb-8b98-4f6f-b56e-dc973813ca98}, !- Availability Manager List Name
  ,                                       !- Plant Loop Demand Calculation Scheme
  ,                                       !- Common Pipe Simulation
  ,                                       !- Pressure Simulation Type
  ,                                       !- Plant Equipment Operation Heating Load Schedule
  ,                                       !- Plant Equipment Operation Cooling Load Schedule
  ,                                       !- Primary Plant Equipment Operation Scheme Schedule
  ,                                       !- Component Setpoint Operation Scheme Schedule
  {a9b946ed-b73d-411a-a4f8-78a61a2e5aa3}, !- Demand Mixer Name
  {d9b2673b-0f74-4795-91f6-b9035709873f}, !- Demand Splitter Name
  {f190d18c-5a2f-47a1-936a-815a7a0035aa}, !- Supply Mixer Name
  {af89dc97-218b-458a-9ebb-e09ae1971e9b}; !- Supply Splitter Name

OS:Sizing:Plant,
  {755a3997-357e-4aea-82eb-78018f90da3a}, !- Handle
  {d7d46034-dd95-417a-ade6-4e9dc6e14577}, !- Plant or Condenser Loop Name
  Heating,                                !- Loop Type
  82,                                     !- Design Loop Exit Temperature {C}
  11,                                     !- Loop Design Temperature Difference {deltaC}
  NonCoincident,                          !- Sizing Option
  1,                                      !- Zone Timesteps in Averaging Window
  None;                                   !- Coincident Sizing Factor Mode

OS:Node,
  {6a8ceba4-41b6-4b5c-8596-887690c61057}, !- Handle
  Node 7,                                 !- Name
  {72b812c1-6e14-45ba-a7cc-c89b2440809d}, !- Inlet Port
  {93b50fca-7780-49e5-b7ae-1135e1f0cf76}; !- Outlet Port

OS:Node,
  {333ccc2b-68dd-4f6e-befd-b4eb8f3a0122}, !- Handle
  Node 8,                                 !- Name
  {24ca8d5e-0701-4516-831d-9d357e247100}, !- Inlet Port
  {c9e3f7b2-6d33-4c78-801a-b691f49bc9bf}; !- Outlet Port

OS:Node,
  {46b16a7e-7d4e-4161-9cb3-33db06523804}, !- Handle
  Node 9,                                 !- Name
  {6960c2c2-e85d-4ea9-857e-a17884b5f6b6}, !- Inlet Port
  {8b1a47b9-c9d3-436a-9001-9fbea8405124}; !- Outlet Port

OS:Connector:Mixer,
  {f190d18c-5a2f-47a1-936a-815a7a0035aa}, !- Handle
  Connector Mixer 1,                      !- Name
  {24ca8d5e-0701-4516-831d-9d357e247100}, !- Outlet Branch Name
  {3707da2e-6aea-4ca8-997a-9a3f8e43ed01}; !- Inlet Branch Name 1

OS:Connector:Splitter,
  {af89dc97-218b-458a-9ebb-e09ae1971e9b}, !- Handle
  Connector Splitter 1,                   !- Name
  {93b50fca-7780-49e5-b7ae-1135e1f0cf76}, !- Inlet Branch Name
  {6960c2c2-e85d-4ea9-857e-a17884b5f6b6}; !- Outlet Branch Name 1

OS:Connection,
  {72b812c1-6e14-45ba-a7cc-c89b2440809d}, !- Handle
  {adfe153a-c077-453a-9f23-de7cecf2d266}, !- Name
  {d7d46034-dd95-417a-ade6-4e9dc6e14577}, !- Source Object
  14,                                     !- Outlet Port
  {6a8ceba4-41b6-4b5c-8596-887690c61057}, !- Target Object
  2;                                      !- Inlet Port

OS:Connection,
  {93b50fca-7780-49e5-b7ae-1135e1f0cf76}, !- Handle
  {6a3fb26d-9f98-42a6-a7b3-cd5fde42c2cc}, !- Name
  {6a8ceba4-41b6-4b5c-8596-887690c61057}, !- Source Object
  3,                                      !- Outlet Port
  {af89dc97-218b-458a-9ebb-e09ae1971e9b}, !- Target Object
  2;                                      !- Inlet Port

OS:Connection,
  {6960c2c2-e85d-4ea9-857e-a17884b5f6b6}, !- Handle
  {f66581b2-792e-41a4-8e3c-973f825ea14a}, !- Name
  {af89dc97-218b-458a-9ebb-e09ae1971e9b}, !- Source Object
  3,                                      !- Outlet Port
  {46b16a7e-7d4e-4161-9cb3-33db06523804}, !- Target Object
  2;                                      !- Inlet Port

OS:Connection,
  {24ca8d5e-0701-4516-831d-9d357e247100}, !- Handle
  {2b2daf49-c17f-4d3f-a8e7-bb433a132e51}, !- Name
  {f190d18c-5a2f-47a1-936a-815a7a0035aa}, !- Source Object
  2,                                      !- Outlet Port
  {333ccc2b-68dd-4f6e-befd-b4eb8f3a0122}, !- Target Object
  2;                                      !- Inlet Port

OS:Connection,
  {c9e3f7b2-6d33-4c78-801a-b691f49bc9bf}, !- Handle
  {5639707c-248e-4397-add1-8afec1dbbf61}, !- Name
  {333ccc2b-68dd-4f6e-befd-b4eb8f3a0122}, !- Source Object
  3,                                      !- Outlet Port
  {d7d46034-dd95-417a-ade6-4e9dc6e14577}, !- Target Object
  15;                                     !- Inlet Port

OS:Node,
  {b7f21965-06ad-406b-91a0-6db44df40658}, !- Handle
  Node 10,                                !- Name
  {be7b21b9-6863-4cdc-8029-f9fbb3f7df7f}, !- Inlet Port
  {172fe06e-af44-489b-bf97-3b371f6050e7}; !- Outlet Port

OS:Node,
  {a84acf7b-44e9-47b0-9ab4-7c5b36e4f003}, !- Handle
  Node 11,                                !- Name
  {32e37125-d1da-4dd2-bb04-52ba92a0949b}, !- Inlet Port
  {1e16775a-23f5-4020-975d-0f81aad9c02a}; !- Outlet Port

OS:Node,
  {f45c0f9c-3cc4-45e3-8fad-6291b657264c}, !- Handle
  Node 12,                                !- Name
  {8533b5c0-c370-4ab2-b4af-f6f3030a7f67}, !- Inlet Port
  {f2c467eb-7264-493e-ae6d-caa34b4321db}; !- Outlet Port

OS:Connector:Mixer,
  {a9b946ed-b73d-411a-a4f8-78a61a2e5aa3}, !- Handle
  Connector Mixer 2,                      !- Name
  {32e37125-d1da-4dd2-bb04-52ba92a0949b}, !- Outlet Branch Name
  {bd84bb22-ab32-48af-a5c8-23d5e991b648}; !- Inlet Branch Name 1

OS:Connector:Splitter,
  {d9b2673b-0f74-4795-91f6-b9035709873f}, !- Handle
  Connector Splitter 2,                   !- Name
  {172fe06e-af44-489b-bf97-3b371f6050e7}, !- Inlet Branch Name
  {8533b5c0-c370-4ab2-b4af-f6f3030a7f67}; !- Outlet Branch Name 1

OS:Connection,
  {be7b21b9-6863-4cdc-8029-f9fbb3f7df7f}, !- Handle
  {a3fbc13d-ef7e-4e07-8df6-41da3aa23623}, !- Name
  {d7d46034-dd95-417a-ade6-4e9dc6e14577}, !- Source Object
  17,                                     !- Outlet Port
  {b7f21965-06ad-406b-91a0-6db44df40658}, !- Target Object
  2;                                      !- Inlet Port

OS:Connection,
  {172fe06e-af44-489b-bf97-3b371f6050e7}, !- Handle
  {cc64d709-c232-486a-8b8f-420ce53235c5}, !- Name
  {b7f21965-06ad-406b-91a0-6db44df40658}, !- Source Object
  3,                                      !- Outlet Port
  {d9b2673b-0f74-4795-91f6-b9035709873f}, !- Target Object
  2;                                      !- Inlet Port

OS:Connection,
  {8533b5c0-c370-4ab2-b4af-f6f3030a7f67}, !- Handle
  {e8f240fd-bfe4-46f9-a119-580685227a28}, !- Name
  {d9b2673b-0f74-4795-91f6-b9035709873f}, !- Source Object
  3,                                      !- Outlet Port
  {f45c0f9c-3cc4-45e3-8fad-6291b657264c}, !- Target Object
  2;                                      !- Inlet Port

OS:Connection,
  {32e37125-d1da-4dd2-bb04-52ba92a0949b}, !- Handle
  {1bbe5632-ce98-4b30-be46-f7a882cda08c}, !- Name
  {a9b946ed-b73d-411a-a4f8-78a61a2e5aa3}, !- Source Object
  2,                                      !- Outlet Port
  {a84acf7b-44e9-47b0-9ab4-7c5b36e4f003}, !- Target Object
  2;                                      !- Inlet Port

OS:Connection,
  {1e16775a-23f5-4020-975d-0f81aad9c02a}, !- Handle
  {dbb2aa57-16d0-4ed0-b321-aee5af1e8851}, !- Name
  {a84acf7b-44e9-47b0-9ab4-7c5b36e4f003}, !- Source Object
  3,                                      !- Outlet Port
  {d7d46034-dd95-417a-ade6-4e9dc6e14577}, !- Target Object
  18;                                     !- Inlet Port

OS:AvailabilityManagerAssignmentList,
  {4cbab8eb-8b98-4f6f-b56e-dc973813ca98}, !- Handle
  Plant Loop 1 AvailabilityManagerAssignmentList; !- Name

OS:Boiler:HotWater,
  {eea0de4f-a649-4afc-81f1-aaa641f11ff1}, !- Handle
  Boiler Hot Water 1,                     !- Name
  ,                                       !- Fuel Type
  ,                                       !- Nominal Capacity {W}
  ,                                       !- Nominal Thermal Efficiency
  ,                                       !- Efficiency Curve Temperature Evaluation Variable
  ,                                       !- Normalized Boiler Efficiency Curve Name
  ,                                       !- Design Water Outlet Temperature {C}
  ,                                       !- Design Water Flow Rate {m3/s}
  ,                                       !- Minimum Part Load Ratio
  ,                                       !- Maximum Part Load Ratio
  ,                                       !- Optimum Part Load Ratio
  {8b1a47b9-c9d3-436a-9001-9fbea8405124}, !- Boiler Water Inlet Node Name
  {f8e94ddb-51c7-4071-b2a4-6ac49083706e}, !- Boiler Water Outlet Node Name
  99,                                     !- Water Outlet Upper Temperature Limit {C}
  ConstantFlow,                           !- Boiler Flow Mode
  0,                                      !- Parasitic Electric Load {W}
  1;                                      !- Sizing Factor

OS:Node,
  {c38c58e8-b1d8-418b-9522-8dc5f62c138c}, !- Handle
  Node 13,                                !- Name
  {f8e94ddb-51c7-4071-b2a4-6ac49083706e}, !- Inlet Port
  {3707da2e-6aea-4ca8-997a-9a3f8e43ed01}; !- Outlet Port

OS:Connection,
  {8b1a47b9-c9d3-436a-9001-9fbea8405124}, !- Handle
  {9d201e9b-3815-48f0-971d-ec3ce389d420}, !- Name
  {46b16a7e-7d4e-4161-9cb3-33db06523804}, !- Source Object
  3,                                      !- Outlet Port
  {eea0de4f-a649-4afc-81f1-aaa641f11ff1}, !- Target Object
  12;                                     !- Inlet Port

OS:Connection,
  {f8e94ddb-51c7-4071-b2a4-6ac49083706e}, !- Handle
  {eb3826ce-2123-4c39-9f7a-d6b2eff2cb81}, !- Name
  {eea0de4f-a649-4afc-81f1-aaa641f11ff1}, !- Source Object
  13,                                     !- Outlet Port
  {c38c58e8-b1d8-418b-9522-8dc5f62c138c}, !- Target Object
  2;                                      !- Inlet Port

OS:Connection,
  {3707da2e-6aea-4ca8-997a-9a3f8e43ed01}, !- Handle
  {23f2c536-e022-4041-8071-f98cb6e073b3}, !- Name
  {c38c58e8-b1d8-418b-9522-8dc5f62c138c}, !- Source Object
  3,                                      !- Outlet Port
  {f190d18c-5a2f-47a1-936a-815a7a0035aa}, !- Target Object
  3;                                      !- Inlet Port

OS:Coil:Heating:Water,
  {032df17a-2fad-4f16-a4c9-e3dd24f2ae14}, !- Handle
  Coil Heating Water 1[#TZL4L5],          !- Name
  {d6553c53-b06f-4d41-af96-6b8b84b6a036}, !- Availability Schedule Name
  ,                                       !- U-Factor Times Area Value {W/K}
  ,                                       !- Maximum Water Flow Rate {m3/s}
  {f2c467eb-7264-493e-ae6d-caa34b4321db}, !- Water Inlet Node Name
  {cbba4c6b-1639-4983-8655-bb3da830b1fe}, !- Water Outlet Node Name
  ,                                       !- Air Inlet Node Name
  ,                                       !- Air Outlet Node Name
  ,                                       !- Performance Input Method
  ,                                       !- Rated Capacity {W}
  ,                                       !- Rated Inlet Water Temperature {C}
  ,                                       !- Rated Inlet Air Temperature {C}
  ,                                       !- Rated Outlet Water Temperature {C}
  ,                                       !- Rated Outlet Air Temperature {C}
  ;                                       !- Rated Ratio for Air and Water Convection

OS:Node,
  {90e9f93f-c6fd-4d24-af84-0516b2e59ca6}, !- Handle
  Node 14,                                !- Name
  {cbba4c6b-1639-4983-8655-bb3da830b1fe}, !- Inlet Port
  {bd84bb22-ab32-48af-a5c8-23d5e991b648}; !- Outlet Port

OS:Connection,
  {f2c467eb-7264-493e-ae6d-caa34b4321db}, !- Handle
  {2da60e6d-1a18-48b2-b4ec-504e2a9fd4be}, !- Name
  {f45c0f9c-3cc4-45e3-8fad-6291b657264c}, !- Source Object
  3,                                      !- Outlet Port
  {032df17a-2fad-4f16-a4c9-e3dd24f2ae14}, !- Target Object
  5;                                      !- Inlet Port

OS:Connection,
  {cbba4c6b-1639-4983-8655-bb3da830b1fe}, !- Handle
  {b0d45600-55fa-4099-929f-8a10ebaf225e}, !- Name
  {032df17a-2fad-4f16-a4c9-e3dd24f2ae14}, !- Source Object
  6,                                      !- Outlet Port
  {90e9f93f-c6fd-4d24-af84-0516b2e59ca6}, !- Target Object
  2;                                      !- Inlet Port

OS:Connection,
  {bd84bb22-ab32-48af-a5c8-23d5e991b648}, !- Handle
  {9786df8e-7630-49af-a041-c9190496ef3d}, !- Name
  {90e9f93f-c6fd-4d24-af84-0516b2e59ca6}, !- Source Object
  3,                                      !- Outlet Port
  {a9b946ed-b73d-411a-a4f8-78a61a2e5aa3}, !- Target Object
  3;                                      !- Inlet Port

OS:Controller:WaterCoil,
  {c1cbf76c-fd26-4358-b7b9-018bde29434d}, !- Handle
  Controller Water Coil 1,                !- Name
  {032df17a-2fad-4f16-a4c9-e3dd24f2ae14}, !- Water Coil Name
  ,                                       !- Control Variable
  Normal,                                 !- Action
  ,                                       !- Actuator Variable
  ,                                       !- Sensor Node Name
  ,                                       !- Actuator Node Name
  ,                                       !- Controller Convergence Tolerance {deltaC}
  ,                                       !- Maximum Actuated Flow {m3/s}
  0;                                      !- Minimum Actuated Flow {m3/s}

