
OS:Version,
  {96e35bfc-03b0-4379-872f-f09a9652c0a0}, !- Handle
  2.4.0;                                  !- Version Identifier

OS:Schedule:Constant,
  {2b3634ba-d0c2-4f2e-a862-07e41cfc1faf}, !- Handle
  Always On Discrete,                     !- Name
  {d4d4bfcb-f392-49c3-a171-e301763d1f02}, !- Schedule Type Limits Name
  1;                                      !- Value

OS:ScheduleTypeLimits,
  {d4d4bfcb-f392-49c3-a171-e301763d1f02}, !- Handle
  OnOff,                                  !- Name
  0,                                      !- Lower Limit Value
  1,                                      !- Upper Limit Value
  Discrete,                               !- Numeric Type
  Availability;                           !- Unit Type

! TrackingID:#[9twqOk]
OS:Sizing:Zone,
  {0d6b5fb3-8b5d-4b86-a77f-fc788acae188}, !- Handle
  ,                                       !- Zone or ZoneList Name
  SupplyAirTemperature,                   !- Zone Cooling Design Supply Air Temperature Input Method
  14,                                     !- Zone Cooling Design Supply Air Temperature {C}
  11.11,                                  !- Zone Cooling Design Supply Air Temperature Difference {deltaC}
  SupplyAirTemperature,                   !- Zone Heating Design Supply Air Temperature Input Method
  40,                                     !- Zone Heating Design Supply Air Temperature {C}
  11.11,                                  !- Zone Heating Design Supply Air Temperature Difference {deltaC}
  0.0085,                                 !- Zone Cooling Design Supply Air Humidity Ratio {kg-H2O/kg-air}
  0.008,                                  !- Zone Heating Design Supply Air Humidity Ratio {kg-H2O/kg-air}
  ,                                       !- Zone Heating Sizing Factor
  ,                                       !- Zone Cooling Sizing Factor
  DesignDay,                              !- Cooling Design Air Flow Method
  ,                                       !- Cooling Design Air Flow Rate {m3/s}
  ,                                       !- Cooling Minimum Air Flow per Zone Floor Area {m3/s-m2}
  ,                                       !- Cooling Minimum Air Flow {m3/s}
  ,                                       !- Cooling Minimum Air Flow Fraction
  DesignDay,                              !- Heating Design Air Flow Method
  ,                                       !- Heating Design Air Flow Rate {m3/s}
  ,                                       !- Heating Maximum Air Flow per Zone Floor Area {m3/s-m2}
  ,                                       !- Heating Maximum Air Flow {m3/s}
  ,                                       !- Heating Maximum Air Flow Fraction
  ,                                       !- Design Zone Air Distribution Effectiveness in Cooling Mode
  ,                                       !- Design Zone Air Distribution Effectiveness in Heating Mode
  No,                                     !- Account for Dedicated Outdoor Air System
  NeutralSupplyAir,                       !- Dedicated Outdoor Air System Control Strategy
  autosize,                               !- Dedicated Outdoor Air Low Setpoint Temperature for Design {C}
  autosize;                               !- Dedicated Outdoor Air High Setpoint Temperature for Design {C}

OS:Sizing:Zone,
  {c33de85a-446f-4633-a4aa-8898874ff882}, !- Handle
  ,                                       !- Zone or ZoneList Name
  SupplyAirTemperature,                   !- Zone Cooling Design Supply Air Temperature Input Method
  14,                                     !- Zone Cooling Design Supply Air Temperature {C}
  11.11,                                  !- Zone Cooling Design Supply Air Temperature Difference {deltaC}
  SupplyAirTemperature,                   !- Zone Heating Design Supply Air Temperature Input Method
  40,                                     !- Zone Heating Design Supply Air Temperature {C}
  11.11,                                  !- Zone Heating Design Supply Air Temperature Difference {deltaC}
  0.0085,                                 !- Zone Cooling Design Supply Air Humidity Ratio {kg-H2O/kg-air}
  0.008,                                  !- Zone Heating Design Supply Air Humidity Ratio {kg-H2O/kg-air}
  ,                                       !- Zone Heating Sizing Factor
  ,                                       !- Zone Cooling Sizing Factor
  DesignDay,                              !- Cooling Design Air Flow Method
  ,                                       !- Cooling Design Air Flow Rate {m3/s}
  ,                                       !- Cooling Minimum Air Flow per Zone Floor Area {m3/s-m2}
  ,                                       !- Cooling Minimum Air Flow {m3/s}
  ,                                       !- Cooling Minimum Air Flow Fraction
  DesignDay,                              !- Heating Design Air Flow Method
  ,                                       !- Heating Design Air Flow Rate {m3/s}
  ,                                       !- Heating Maximum Air Flow per Zone Floor Area {m3/s-m2}
  ,                                       !- Heating Maximum Air Flow {m3/s}
  ,                                       !- Heating Maximum Air Flow Fraction
  ,                                       !- Design Zone Air Distribution Effectiveness in Cooling Mode
  ,                                       !- Design Zone Air Distribution Effectiveness in Heating Mode
  No,                                     !- Account for Dedicated Outdoor Air System
  NeutralSupplyAir,                       !- Dedicated Outdoor Air System Control Strategy
  autosize,                               !- Dedicated Outdoor Air Low Setpoint Temperature for Design {C}
  autosize;                               !- Dedicated Outdoor Air High Setpoint Temperature for Design {C}

! TrackingID:#[p0lP3R]
OS:Sizing:Zone,
  {8eaf36d7-8f67-46ec-8a06-4427cea0ed2e}, !- Handle
  ,                                       !- Zone or ZoneList Name
  SupplyAirTemperature,                   !- Zone Cooling Design Supply Air Temperature Input Method
  14,                                     !- Zone Cooling Design Supply Air Temperature {C}
  11.11,                                  !- Zone Cooling Design Supply Air Temperature Difference {deltaC}
  SupplyAirTemperature,                   !- Zone Heating Design Supply Air Temperature Input Method
  40,                                     !- Zone Heating Design Supply Air Temperature {C}
  11.11,                                  !- Zone Heating Design Supply Air Temperature Difference {deltaC}
  0.0085,                                 !- Zone Cooling Design Supply Air Humidity Ratio {kg-H2O/kg-air}
  0.008,                                  !- Zone Heating Design Supply Air Humidity Ratio {kg-H2O/kg-air}
  ,                                       !- Zone Heating Sizing Factor
  ,                                       !- Zone Cooling Sizing Factor
  DesignDay,                              !- Cooling Design Air Flow Method
  ,                                       !- Cooling Design Air Flow Rate {m3/s}
  ,                                       !- Cooling Minimum Air Flow per Zone Floor Area {m3/s-m2}
  ,                                       !- Cooling Minimum Air Flow {m3/s}
  ,                                       !- Cooling Minimum Air Flow Fraction
  DesignDay,                              !- Heating Design Air Flow Method
  ,                                       !- Heating Design Air Flow Rate {m3/s}
  ,                                       !- Heating Maximum Air Flow per Zone Floor Area {m3/s-m2}
  ,                                       !- Heating Maximum Air Flow {m3/s}
  ,                                       !- Heating Maximum Air Flow Fraction
  ,                                       !- Design Zone Air Distribution Effectiveness in Cooling Mode
  ,                                       !- Design Zone Air Distribution Effectiveness in Heating Mode
  No,                                     !- Account for Dedicated Outdoor Air System
  NeutralSupplyAir,                       !- Dedicated Outdoor Air System Control Strategy
  autosize,                               !- Dedicated Outdoor Air Low Setpoint Temperature for Design {C}
  autosize;                               !- Dedicated Outdoor Air High Setpoint Temperature for Design {C}

! TrackingID:#[qC1Hjo]
OS:Sizing:Zone,
  {f9e66ed1-0a1f-4cd3-ae6a-2528ec214728}, !- Handle
  ,                                       !- Zone or ZoneList Name
  SupplyAirTemperature,                   !- Zone Cooling Design Supply Air Temperature Input Method
  14,                                     !- Zone Cooling Design Supply Air Temperature {C}
  11.11,                                  !- Zone Cooling Design Supply Air Temperature Difference {deltaC}
  SupplyAirTemperature,                   !- Zone Heating Design Supply Air Temperature Input Method
  40,                                     !- Zone Heating Design Supply Air Temperature {C}
  11.11,                                  !- Zone Heating Design Supply Air Temperature Difference {deltaC}
  0.0085,                                 !- Zone Cooling Design Supply Air Humidity Ratio {kg-H2O/kg-air}
  0.008,                                  !- Zone Heating Design Supply Air Humidity Ratio {kg-H2O/kg-air}
  ,                                       !- Zone Heating Sizing Factor
  ,                                       !- Zone Cooling Sizing Factor
  DesignDay,                              !- Cooling Design Air Flow Method
  ,                                       !- Cooling Design Air Flow Rate {m3/s}
  ,                                       !- Cooling Minimum Air Flow per Zone Floor Area {m3/s-m2}
  ,                                       !- Cooling Minimum Air Flow {m3/s}
  ,                                       !- Cooling Minimum Air Flow Fraction
  DesignDay,                              !- Heating Design Air Flow Method
  ,                                       !- Heating Design Air Flow Rate {m3/s}
  ,                                       !- Heating Maximum Air Flow per Zone Floor Area {m3/s-m2}
  ,                                       !- Heating Maximum Air Flow {m3/s}
  ,                                       !- Heating Maximum Air Flow Fraction
  ,                                       !- Design Zone Air Distribution Effectiveness in Cooling Mode
  ,                                       !- Design Zone Air Distribution Effectiveness in Heating Mode
  No,                                     !- Account for Dedicated Outdoor Air System
  NeutralSupplyAir,                       !- Dedicated Outdoor Air System Control Strategy
  autosize,                               !- Dedicated Outdoor Air Low Setpoint Temperature for Design {C}
  autosize;                               !- Dedicated Outdoor Air High Setpoint Temperature for Design {C}

! TrackingID:#[9lB2tp]
OS:Sizing:Zone,
  {c93daddf-33f8-4215-bf16-17af5e1b520c}, !- Handle
  ,                                       !- Zone or ZoneList Name
  SupplyAirTemperature,                   !- Zone Cooling Design Supply Air Temperature Input Method
  14,                                     !- Zone Cooling Design Supply Air Temperature {C}
  11.11,                                  !- Zone Cooling Design Supply Air Temperature Difference {deltaC}
  SupplyAirTemperature,                   !- Zone Heating Design Supply Air Temperature Input Method
  40,                                     !- Zone Heating Design Supply Air Temperature {C}
  11.11,                                  !- Zone Heating Design Supply Air Temperature Difference {deltaC}
  0.0085,                                 !- Zone Cooling Design Supply Air Humidity Ratio {kg-H2O/kg-air}
  0.008,                                  !- Zone Heating Design Supply Air Humidity Ratio {kg-H2O/kg-air}
  ,                                       !- Zone Heating Sizing Factor
  ,                                       !- Zone Cooling Sizing Factor
  DesignDay,                              !- Cooling Design Air Flow Method
  ,                                       !- Cooling Design Air Flow Rate {m3/s}
  ,                                       !- Cooling Minimum Air Flow per Zone Floor Area {m3/s-m2}
  ,                                       !- Cooling Minimum Air Flow {m3/s}
  ,                                       !- Cooling Minimum Air Flow Fraction
  DesignDay,                              !- Heating Design Air Flow Method
  ,                                       !- Heating Design Air Flow Rate {m3/s}
  ,                                       !- Heating Maximum Air Flow per Zone Floor Area {m3/s-m2}
  ,                                       !- Heating Maximum Air Flow {m3/s}
  ,                                       !- Heating Maximum Air Flow Fraction
  ,                                       !- Design Zone Air Distribution Effectiveness in Cooling Mode
  ,                                       !- Design Zone Air Distribution Effectiveness in Heating Mode
  No,                                     !- Account for Dedicated Outdoor Air System
  NeutralSupplyAir,                       !- Dedicated Outdoor Air System Control Strategy
  autosize,                               !- Dedicated Outdoor Air Low Setpoint Temperature for Design {C}
  autosize;                               !- Dedicated Outdoor Air High Setpoint Temperature for Design {C}

OS:Node,
  {09d7bb7e-c8d5-4b63-ba5a-02cf11e615c1}, !- Handle
  Node 3,                                 !- Name
  {319e0922-966f-4164-bcfa-d29908eae113}, !- Inlet Port
  {7aabb2fb-c4fd-4e1a-a6b9-15d48c9aff48}; !- Outlet Port

OS:Node,
  {9823b2ef-0ff4-4270-9036-1baacf153ffb}, !- Handle
  Node 4,                                 !- Name
  {8eb71ff3-68c5-411f-8c27-cbb64b0ac16d}, !- Inlet Port
  {6e4dd178-6d79-459a-ae52-13d95fec1756}; !- Outlet Port

OS:Node,
  {6f1b9a41-b4e2-4650-9129-f10b0b518eb9}, !- Handle
  Node 5,                                 !- Name
  {95be8dbf-e9cb-4111-8fac-f113e446e631}, !- Inlet Port
  ;                                       !- Outlet Port

OS:Connection,
  {319e0922-966f-4164-bcfa-d29908eae113}, !- Handle
  {12d14a29-44c9-4ae5-af3c-b92352dbdacb}, !- Name
  ,                                       !- Source Object
  10,                                     !- Outlet Port
  {09d7bb7e-c8d5-4b63-ba5a-02cf11e615c1}, !- Target Object
  2;                                      !- Inlet Port

OS:Connection,
  {6e4dd178-6d79-459a-ae52-13d95fec1756}, !- Handle
  {27674cb4-34e0-454a-8a5f-9a2d74e7b2e2}, !- Name
  {9823b2ef-0ff4-4270-9036-1baacf153ffb}, !- Source Object
  3,                                      !- Outlet Port
  ,                                       !- Target Object
  9;                                      !- Inlet Port

OS:AirLoopHVAC:ZoneSplitter,
  {4a8d39db-1400-4d14-8354-7594e31c3630}, !- Handle
  Air Loop HVAC Zone Splitter 1,          !- Name
  {7aabb2fb-c4fd-4e1a-a6b9-15d48c9aff48}, !- Inlet Node Name
  {59472a8b-6c51-4123-8185-fbb11ad4c31c}, !- Outlet Node Name 1
  {ec225f56-2bfd-4de5-ae84-ebb8d8a7102d}; !- Outlet Node Name 2

OS:AirLoopHVAC:ZoneMixer,
  {7c44226d-b0d4-47b3-8465-060d88016233}, !- Handle
  Air Loop HVAC Zone Mixer 1,             !- Name
  {8eb71ff3-68c5-411f-8c27-cbb64b0ac16d}, !- Outlet Node Name
  {63acfd6e-99a5-4c56-97a9-60a5b6da4f5a}, !- Inlet Node Name 1
  {5182ebc5-00ae-4c65-821e-24e4b1b94cbd}; !- Inlet Node Name 2

OS:Connection,
  {7aabb2fb-c4fd-4e1a-a6b9-15d48c9aff48}, !- Handle
  {90ac7d36-e91c-46b2-a48c-2db8baceadc8}, !- Name
  {09d7bb7e-c8d5-4b63-ba5a-02cf11e615c1}, !- Source Object
  3,                                      !- Outlet Port
  {4a8d39db-1400-4d14-8354-7594e31c3630}, !- Target Object
  2;                                      !- Inlet Port

OS:Connection,
  {8eb71ff3-68c5-411f-8c27-cbb64b0ac16d}, !- Handle
  {55a02062-d381-4b3f-b0ce-d1f75b2faba2}, !- Name
  {7c44226d-b0d4-47b3-8465-060d88016233}, !- Source Object
  2,                                      !- Outlet Port
  {9823b2ef-0ff4-4270-9036-1baacf153ffb}, !- Target Object
  2;                                      !- Inlet Port

! TrackingID:#[yAhOvL]
OS:ThermalZone,
  {2da5e6ac-cd5b-4469-bc7f-93f105d99dcc}, !- Handle
  555_0,                                  !- Name
  ,                                       !- Multiplier
  ,                                       !- Ceiling Height {m}
  ,                                       !- Volume {m3}
  ,                                       !- Floor Area {m2}
  ,                                       !- Zone Inside Convection Algorithm
  ,                                       !- Zone Outside Convection Algorithm
  ,                                       !- Zone Conditioning Equipment List Name
  {21025487-2f48-490a-b902-db061dae5249}, !- Zone Air Inlet Port List
  {ea97e662-4111-4310-813b-25e6f2a08749}, !- Zone Air Exhaust Port List
  {b20e5253-0862-4707-80d9-91b575df2e5a}, !- Zone Air Node Name
  ,                                       !- Zone Return Air Node Name
  ,                                       !- Primary Daylighting Control Name
  ,                                       !- Fraction of Zone Controlled by Primary Daylighting Control
  ,                                       !- Secondary Daylighting Control Name
  ,                                       !- Fraction of Zone Controlled by Secondary Daylighting Control
  ,                                       !- Illuminance Map Name
  ,                                       !- Group Rendering Name
  ,                                       !- Thermostat Name
  No;                                     !- Use Ideal Air Loads

OS:Node,
  {611509ed-c51d-42ea-a587-180ae15aecfa}, !- Handle
  Node 7,                                 !- Name
  {b20e5253-0862-4707-80d9-91b575df2e5a}, !- Inlet Port
  ;                                       !- Outlet Port

OS:Connection,
  {b20e5253-0862-4707-80d9-91b575df2e5a}, !- Handle
  {c08b9d41-b1be-4cfa-83f3-9a5a019df997}, !- Name
  {2da5e6ac-cd5b-4469-bc7f-93f105d99dcc}, !- Source Object
  11,                                     !- Outlet Port
  {611509ed-c51d-42ea-a587-180ae15aecfa}, !- Target Object
  2;                                      !- Inlet Port

OS:PortList,
  {21025487-2f48-490a-b902-db061dae5249}, !- Handle
  {f2fc010d-0fb1-4d9c-8026-59bab72a43ad}, !- Name
  {2da5e6ac-cd5b-4469-bc7f-93f105d99dcc}; !- HVAC Component

OS:PortList,
  {ea97e662-4111-4310-813b-25e6f2a08749}, !- Handle
  {608b881b-5a6e-4508-9029-510a47a0788d}, !- Name
  {2da5e6ac-cd5b-4469-bc7f-93f105d99dcc}; !- HVAC Component

OS:Sizing:Zone,
  {57f55518-c0e9-4697-ae37-73c1af107b13}, !- Handle
  {2da5e6ac-cd5b-4469-bc7f-93f105d99dcc}, !- Zone or ZoneList Name
  SupplyAirTemperature,                   !- Zone Cooling Design Supply Air Temperature Input Method
  14,                                     !- Zone Cooling Design Supply Air Temperature {C}
  11.11,                                  !- Zone Cooling Design Supply Air Temperature Difference {deltaC}
  SupplyAirTemperature,                   !- Zone Heating Design Supply Air Temperature Input Method
  40,                                     !- Zone Heating Design Supply Air Temperature {C}
  11.11,                                  !- Zone Heating Design Supply Air Temperature Difference {deltaC}
  0.0085,                                 !- Zone Cooling Design Supply Air Humidity Ratio {kg-H2O/kg-air}
  0.008,                                  !- Zone Heating Design Supply Air Humidity Ratio {kg-H2O/kg-air}
  ,                                       !- Zone Heating Sizing Factor
  ,                                       !- Zone Cooling Sizing Factor
  DesignDay,                              !- Cooling Design Air Flow Method
  ,                                       !- Cooling Design Air Flow Rate {m3/s}
  ,                                       !- Cooling Minimum Air Flow per Zone Floor Area {m3/s-m2}
  ,                                       !- Cooling Minimum Air Flow {m3/s}
  ,                                       !- Cooling Minimum Air Flow Fraction
  DesignDay,                              !- Heating Design Air Flow Method
  ,                                       !- Heating Design Air Flow Rate {m3/s}
  ,                                       !- Heating Maximum Air Flow per Zone Floor Area {m3/s-m2}
  ,                                       !- Heating Maximum Air Flow {m3/s}
  ,                                       !- Heating Maximum Air Flow Fraction
  ,                                       !- Design Zone Air Distribution Effectiveness in Cooling Mode
  ,                                       !- Design Zone Air Distribution Effectiveness in Heating Mode
  No,                                     !- Account for Dedicated Outdoor Air System
  NeutralSupplyAir,                       !- Dedicated Outdoor Air System Control Strategy
  autosize,                               !- Dedicated Outdoor Air Low Setpoint Temperature for Design {C}
  autosize;                               !- Dedicated Outdoor Air High Setpoint Temperature for Design {C}

OS:ZoneHVAC:EquipmentList,
  {ead25c66-f544-4a5f-a532-26eadaad49cd}, !- Handle
  Zone HVAC Equipment List 1,             !- Name
  {2da5e6ac-cd5b-4469-bc7f-93f105d99dcc}, !- Thermal Zone
  {4334e050-9053-4327-8ce7-9000a8e18677}, !- Zone Equipment 1
  1,                                      !- Zone Equipment Cooling Sequence 1
  1;                                      !- Zone Equipment Heating or No-Load Sequence 1

! TrackingID:#[I8lsWN]
OS:Sizing:Zone,
  {e885a3a1-34e3-475f-8762-7b967eea422d}, !- Handle
  {2da5e6ac-cd5b-4469-bc7f-93f105d99dcc}, !- Zone or ZoneList Name
  SupplyAirTemperature,                   !- Zone Cooling Design Supply Air Temperature Input Method
  14,                                     !- Zone Cooling Design Supply Air Temperature {C}
  11.11,                                  !- Zone Cooling Design Supply Air Temperature Difference {deltaC}
  SupplyAirTemperature,                   !- Zone Heating Design Supply Air Temperature Input Method
  40,                                     !- Zone Heating Design Supply Air Temperature {C}
  11.11,                                  !- Zone Heating Design Supply Air Temperature Difference {deltaC}
  0.0085,                                 !- Zone Cooling Design Supply Air Humidity Ratio {kg-H2O/kg-air}
  0.008,                                  !- Zone Heating Design Supply Air Humidity Ratio {kg-H2O/kg-air}
  ,                                       !- Zone Heating Sizing Factor
  ,                                       !- Zone Cooling Sizing Factor
  DesignDay,                              !- Cooling Design Air Flow Method
  ,                                       !- Cooling Design Air Flow Rate {m3/s}
  ,                                       !- Cooling Minimum Air Flow per Zone Floor Area {m3/s-m2}
  ,                                       !- Cooling Minimum Air Flow {m3/s}
  ,                                       !- Cooling Minimum Air Flow Fraction
  DesignDay,                              !- Heating Design Air Flow Method
  ,                                       !- Heating Design Air Flow Rate {m3/s}
  ,                                       !- Heating Maximum Air Flow per Zone Floor Area {m3/s-m2}
  ,                                       !- Heating Maximum Air Flow {m3/s}
  ,                                       !- Heating Maximum Air Flow Fraction
  ,                                       !- Design Zone Air Distribution Effectiveness in Cooling Mode
  ,                                       !- Design Zone Air Distribution Effectiveness in Heating Mode
  No,                                     !- Account for Dedicated Outdoor Air System
  NeutralSupplyAir,                       !- Dedicated Outdoor Air System Control Strategy
  autosize,                               !- Dedicated Outdoor Air Low Setpoint Temperature for Design {C}
  autosize;                               !- Dedicated Outdoor Air High Setpoint Temperature for Design {C}

OS:Coil:Heating:Water,
  {af466a02-157a-47c0-b2af-22702f880c42}, !- Handle
  Coil Heating Water 2,                   !- Name
  {2b3634ba-d0c2-4f2e-a862-07e41cfc1faf}, !- Availability Schedule Name
  ,                                       !- U-Factor Times Area Value {W/K}
  ,                                       !- Maximum Water Flow Rate {m3/s}
  ,                                       !- Water Inlet Node Name
  ,                                       !- Water Outlet Node Name
  ,                                       !- Air Inlet Node Name
  ,                                       !- Air Outlet Node Name
  ,                                       !- Performance Input Method
  ,                                       !- Rated Capacity {W}
  ,                                       !- Rated Inlet Water Temperature {C}
  ,                                       !- Rated Inlet Air Temperature {C}
  ,                                       !- Rated Outlet Water Temperature {C}
  ,                                       !- Rated Outlet Air Temperature {C}
  ;                                       !- Rated Ratio for Air and Water Convection

! TrackingID:#[2MI2ar]
OS:AirTerminal:SingleDuct:VAV:Reheat,
  {4334e050-9053-4327-8ce7-9000a8e18677}, !- Handle
  Air Terminal Single Duct VAV Reheat 1,  !- Name
  {2b3634ba-d0c2-4f2e-a862-07e41cfc1faf}, !- Availability Schedule Name
  {b00e1b7d-5dc9-4a09-b0f2-13ac4204ef22}, !- Air Inlet Node Name
  AutoSize,                               !- Maximum Air Flow Rate {m3/s}
  Constant,                               !- Zone Minimum Air Flow Input Method
  0.3,                                    !- Constant Minimum Air Flow Fraction
  0,                                      !- Fixed Minimum Air Flow Rate {m3/s}
  ,                                       !- Minimum Air Flow Fraction Schedule Name
  {347f023f-df82-411b-9f6f-dc8263669fea}, !- Reheat Coil Name
  AutoSize,                               !- Maximum Hot Water or Steam Flow Rate {m3/s}
  0,                                      !- Minimum Hot Water or Steam Flow Rate {m3/s}
  {95be8dbf-e9cb-4111-8fac-f113e446e631}, !- Air Outlet Node Name
  0.001,                                  !- Convergence Tolerance
  Normal,                                 !- Damper Heating Action
  AutoSize,                               !- Maximum Flow per Zone Floor Area During Reheat {m3/s-m2}
  AutoSize,                               !- Maximum Flow Fraction During Reheat
  35,                                     !- Maximum Reheat Air Temperature {C}
  No;                                     !- Control For Outdoor Air

! TrackingID:#[jyaNeM]
OS:Coil:Heating:Water,
  {347f023f-df82-411b-9f6f-dc8263669fea}, !- Handle
  Coil Heating Water 3,                   !- Name
  {2b3634ba-d0c2-4f2e-a862-07e41cfc1faf}, !- Availability Schedule Name
  ,                                       !- U-Factor Times Area Value {W/K}
  ,                                       !- Maximum Water Flow Rate {m3/s}
  ,                                       !- Water Inlet Node Name
  ,                                       !- Water Outlet Node Name
  ,                                       !- Air Inlet Node Name
  ,                                       !- Air Outlet Node Name
  ,                                       !- Performance Input Method
  ,                                       !- Rated Capacity {W}
  ,                                       !- Rated Inlet Water Temperature {C}
  ,                                       !- Rated Inlet Air Temperature {C}
  ,                                       !- Rated Outlet Water Temperature {C}
  ,                                       !- Rated Outlet Air Temperature {C}
  ;                                       !- Rated Ratio for Air and Water Convection

OS:Node,
  {e114a089-2a1b-435d-9140-5cdfd5a945fb}, !- Handle
  Node 8,                                 !- Name
  ,                                       !- Inlet Port
  {63acfd6e-99a5-4c56-97a9-60a5b6da4f5a}; !- Outlet Port

OS:Connection,
  {63acfd6e-99a5-4c56-97a9-60a5b6da4f5a}, !- Handle
  {1e8734d5-77ab-41c7-8b4c-ff08bc73a2ad}, !- Name
  {e114a089-2a1b-435d-9140-5cdfd5a945fb}, !- Source Object
  3,                                      !- Outlet Port
  {7c44226d-b0d4-47b3-8465-060d88016233}, !- Target Object
  3;                                      !- Inlet Port

OS:Node,
  {1c1814e3-a19c-499e-86bb-eda6ce58d18b}, !- Handle
  Node 9,                                 !- Name
  {59472a8b-6c51-4123-8185-fbb11ad4c31c}, !- Inlet Port
  {b00e1b7d-5dc9-4a09-b0f2-13ac4204ef22}; !- Outlet Port

OS:Connection,
  {59472a8b-6c51-4123-8185-fbb11ad4c31c}, !- Handle
  {79e2f7be-3bbf-4bfe-959a-35a84edd5b9a}, !- Name
  {4a8d39db-1400-4d14-8354-7594e31c3630}, !- Source Object
  3,                                      !- Outlet Port
  {1c1814e3-a19c-499e-86bb-eda6ce58d18b}, !- Target Object
  2;                                      !- Inlet Port

OS:Connection,
  {b00e1b7d-5dc9-4a09-b0f2-13ac4204ef22}, !- Handle
  {f82293de-f0c1-46fa-857b-2a21c9238752}, !- Name
  {1c1814e3-a19c-499e-86bb-eda6ce58d18b}, !- Source Object
  3,                                      !- Outlet Port
  {4334e050-9053-4327-8ce7-9000a8e18677}, !- Target Object
  3;                                      !- Inlet Port

OS:Connection,
  {95be8dbf-e9cb-4111-8fac-f113e446e631}, !- Handle
  {d51c7678-a3a4-4e2d-8f86-d721afcf4886}, !- Name
  {4334e050-9053-4327-8ce7-9000a8e18677}, !- Source Object
  12,                                     !- Outlet Port
  {6f1b9a41-b4e2-4650-9129-f10b0b518eb9}, !- Target Object
  2;                                      !- Inlet Port

! TrackingID:#[UHY8YE]
OS:ThermalZone,
  {f7c38cb9-dac0-4de8-9893-3ab527a1827f}, !- Handle
  555_1,                                  !- Name
  ,                                       !- Multiplier
  ,                                       !- Ceiling Height {m}