
OS:Version,
  {83dce385-bccc-4a83-bac4-bf9c39308884}, !- Handle
  2.4.0;                                  !- Version Identifier

OS:Schedule:Constant,
  {851f90c4-0f5a-491d-ae80-119e7e6d18be}, !- Handle
  Always On Discrete,                     !- Name
  {b0a19763-7d74-42a9-87b0-ae233babaea9}, !- Schedule Type Limits Name
  1;                                      !- Value

OS:ScheduleTypeLimits,
  {b0a19763-7d74-42a9-87b0-ae233babaea9}, !- Handle
  OnOff,                                  !- Name
  0,                                      !- Lower Limit Value
  1,                                      !- Upper Limit Value
  Discrete,                               !- Numeric Type
  Availability;                           !- Unit Type

! TrackingID:#[9twqOk]
OS:Sizing:Zone,
  {939d6081-d643-47b9-9b1c-aca84e5742aa}, !- Handle
  ,                                       !- Zone or ZoneList Name
  SupplyAirTemperature,                   !- Zone Cooling Design Supply Air Temperature Input Method
  14,                                     !- Zone Cooling Design Supply Air Temperature {C}
  11.11,                                  !- Zone Cooling Design Supply Air Temperature Difference {deltaC}
  SupplyAirTemperature,                   !- Zone Heating Design Supply Air Temperature Input Method
  40,                                     !- Zone Heating Design Supply Air Temperature {C}
  11.11,                                  !- Zone Heating Design Supply Air Temperature Difference {deltaC}
  0.0085,                                 !- Zone Cooling Design Supply Air Humidity Ratio {kg-H2O/kg-air}
  0.008,                                  !- Zone Heating Design Supply Air Humidity Ratio {kg-H2O/kg-air}
  ,                                       !- Zone Heating Sizing Factor
  ,                                       !- Zone Cooling Sizing Factor
  DesignDay,                              !- Cooling Design Air Flow Method
  ,                                       !- Cooling Design Air Flow Rate {m3/s}
  ,                                       !- Cooling Minimum Air Flow per Zone Floor Area {m3/s-m2}
  ,                                       !- Cooling Minimum Air Flow {m3/s}
  ,                                       !- Cooling Minimum Air Flow Fraction
  DesignDay,                              !- Heating Design Air Flow Method
  ,                                       !- Heating Design Air Flow Rate {m3/s}
  ,                                       !- Heating Maximum Air Flow per Zone Floor Area {m3/s-m2}
  ,                                       !- Heating Maximum Air Flow {m3/s}
  ,                                       !- Heating Maximum Air Flow Fraction
  ,                                       !- Design Zone Air Distribution Effectiveness in Cooling Mode
  ,                                       !- Design Zone Air Distribution Effectiveness in Heating Mode
  No,                                     !- Account for Dedicated Outdoor Air System
  NeutralSupplyAir,                       !- Dedicated Outdoor Air System Control Strategy
  autosize,                               !- Dedicated Outdoor Air Low Setpoint Temperature for Design {C}
  autosize;                               !- Dedicated Outdoor Air High Setpoint Temperature for Design {C}

OS:Sizing:Zone,
  {7adb2152-a06c-4f13-b239-06d40bde27a0}, !- Handle
  ,                                       !- Zone or ZoneList Name
  SupplyAirTemperature,                   !- Zone Cooling Design Supply Air Temperature Input Method
  14,                                     !- Zone Cooling Design Supply Air Temperature {C}
  11.11,                                  !- Zone Cooling Design Supply Air Temperature Difference {deltaC}
  SupplyAirTemperature,                   !- Zone Heating Design Supply Air Temperature Input Method
  40,                                     !- Zone Heating Design Supply Air Temperature {C}
  11.11,                                  !- Zone Heating Design Supply Air Temperature Difference {deltaC}
  0.0085,                                 !- Zone Cooling Design Supply Air Humidity Ratio {kg-H2O/kg-air}
  0.008,                                  !- Zone Heating Design Supply Air Humidity Ratio {kg-H2O/kg-air}
  ,                                       !- Zone Heating Sizing Factor
  ,                                       !- Zone Cooling Sizing Factor
  DesignDay,                              !- Cooling Design Air Flow Method
  ,                                       !- Cooling Design Air Flow Rate {m3/s}
  ,                                       !- Cooling Minimum Air Flow per Zone Floor Area {m3/s-m2}
  ,                                       !- Cooling Minimum Air Flow {m3/s}
  ,                                       !- Cooling Minimum Air Flow Fraction
  DesignDay,                              !- Heating Design Air Flow Method
  ,                                       !- Heating Design Air Flow Rate {m3/s}
  ,                                       !- Heating Maximum Air Flow per Zone Floor Area {m3/s-m2}
  ,                                       !- Heating Maximum Air Flow {m3/s}
  ,                                       !- Heating Maximum Air Flow Fraction
  ,                                       !- Design Zone Air Distribution Effectiveness in Cooling Mode
  ,                                       !- Design Zone Air Distribution Effectiveness in Heating Mode
  No,                                     !- Account for Dedicated Outdoor Air System
  NeutralSupplyAir,                       !- Dedicated Outdoor Air System Control Strategy
  autosize,                               !- Dedicated Outdoor Air Low Setpoint Temperature for Design {C}
  autosize;                               !- Dedicated Outdoor Air High Setpoint Temperature for Design {C}

! TrackingID:#[p0lP3R]
OS:Sizing:Zone,
  {e9cbac20-84c6-4d49-ad8f-f5c9ae0eda4b}, !- Handle
  ,                                       !- Zone or ZoneList Name
  SupplyAirTemperature,                   !- Zone Cooling Design Supply Air Temperature Input Method
  14,                                     !- Zone Cooling Design Supply Air Temperature {C}
  11.11,                                  !- Zone Cooling Design Supply Air Temperature Difference {deltaC}
  SupplyAirTemperature,                   !- Zone Heating Design Supply Air Temperature Input Method
  40,                                     !- Zone Heating Design Supply Air Temperature {C}
  11.11,                                  !- Zone Heating Design Supply Air Temperature Difference {deltaC}
  0.0085,                                 !- Zone Cooling Design Supply Air Humidity Ratio {kg-H2O/kg-air}
  0.008,                                  !- Zone Heating Design Supply Air Humidity Ratio {kg-H2O/kg-air}
  ,                                       !- Zone Heating Sizing Factor
  ,                                       !- Zone Cooling Sizing Factor
  DesignDay,                              !- Cooling Design Air Flow Method
  ,                                       !- Cooling Design Air Flow Rate {m3/s}
  ,                                       !- Cooling Minimum Air Flow per Zone Floor Area {m3/s-m2}
  ,                                       !- Cooling Minimum Air Flow {m3/s}
  ,                                       !- Cooling Minimum Air Flow Fraction
  DesignDay,                              !- Heating Design Air Flow Method
  ,                                       !- Heating Design Air Flow Rate {m3/s}
  ,                                       !- Heating Maximum Air Flow per Zone Floor Area {m3/s-m2}
  ,                                       !- Heating Maximum Air Flow {m3/s}
  ,                                       !- Heating Maximum Air Flow Fraction
  ,                                       !- Design Zone Air Distribution Effectiveness in Cooling Mode
  ,                                       !- Design Zone Air Distribution Effectiveness in Heating Mode
  No,                                     !- Account for Dedicated Outdoor Air System
  NeutralSupplyAir,                       !- Dedicated Outdoor Air System Control Strategy
  autosize,                               !- Dedicated Outdoor Air Low Setpoint Temperature for Design {C}
  autosize;                               !- Dedicated Outdoor Air High Setpoint Temperature for Design {C}

! TrackingID:#[qC1Hjo]
OS:Sizing:Zone,
  {3ba51def-64b1-4acc-b6cc-f1bba7daa267}, !- Handle
  ,                                       !- Zone or ZoneList Name
  SupplyAirTemperature,                   !- Zone Cooling Design Supply Air Temperature Input Method
  14,                                     !- Zone Cooling Design Supply Air Temperature {C}
  11.11,                                  !- Zone Cooling Design Supply Air Temperature Difference {deltaC}
  SupplyAirTemperature,                   !- Zone Heating Design Supply Air Temperature Input Method
  40,                                     !- Zone Heating Design Supply Air Temperature {C}
  11.11,                                  !- Zone Heating Design Supply Air Temperature Difference {deltaC}
  0.0085,                                 !- Zone Cooling Design Supply Air Humidity Ratio {kg-H2O/kg-air}
  0.008,                                  !- Zone Heating Design Supply Air Humidity Ratio {kg-H2O/kg-air}
  ,                                       !- Zone Heating Sizing Factor
  ,                                       !- Zone Cooling Sizing Factor
  DesignDay,                              !- Cooling Design Air Flow Method
  ,                                       !- Cooling Design Air Flow Rate {m3/s}
  ,                                       !- Cooling Minimum Air Flow per Zone Floor Area {m3/s-m2}
  ,                                       !- Cooling Minimum Air Flow {m3/s}
  ,                                       !- Cooling Minimum Air Flow Fraction
  DesignDay,                              !- Heating Design Air Flow Method
  ,                                       !- Heating Design Air Flow Rate {m3/s}
  ,                                       !- Heating Maximum Air Flow per Zone Floor Area {m3/s-m2}
  ,                                       !- Heating Maximum Air Flow {m3/s}
  ,                                       !- Heating Maximum Air Flow Fraction
  ,                                       !- Design Zone Air Distribution Effectiveness in Cooling Mode
  ,                                       !- Design Zone Air Distribution Effectiveness in Heating Mode
  No,                                     !- Account for Dedicated Outdoor Air System
  NeutralSupplyAir,                       !- Dedicated Outdoor Air System Control Strategy
  autosize,                               !- Dedicated Outdoor Air Low Setpoint Temperature for Design {C}
  autosize;                               !- Dedicated Outdoor Air High Setpoint Temperature for Design {C}

! TrackingID:#[9lB2tp]
OS:Sizing:Zone,
  {b0039851-7939-4d97-a9a7-a887968013a2}, !- Handle
  ,                                       !- Zone or ZoneList Name
  SupplyAirTemperature,                   !- Zone Cooling Design Supply Air Temperature Input Method
  14,                                     !- Zone Cooling Design Supply Air Temperature {C}
  11.11,                                  !- Zone Cooling Design Supply Air Temperature Difference {deltaC}
  SupplyAirTemperature,                   !- Zone Heating Design Supply Air Temperature Input Method
  40,                                     !- Zone Heating Design Supply Air Temperature {C}
  11.11,                                  !- Zone Heating Design Supply Air Temperature Difference {deltaC}
  0.0085,                                 !- Zone Cooling Design Supply Air Humidity Ratio {kg-H2O/kg-air}
  0.008,                                  !- Zone Heating Design Supply Air Humidity Ratio {kg-H2O/kg-air}
  ,                                       !- Zone Heating Sizing Factor
  ,                                       !- Zone Cooling Sizing Factor
  DesignDay,                              !- Cooling Design Air Flow Method
  ,                                       !- Cooling Design Air Flow Rate {m3/s}
  ,                                       !- Cooling Minimum Air Flow per Zone Floor Area {m3/s-m2}
  ,                                       !- Cooling Minimum Air Flow {m3/s}
  ,                                       !- Cooling Minimum Air Flow Fraction
  DesignDay,                              !- Heating Design Air Flow Method
  ,                                       !- Heating Design Air Flow Rate {m3/s}
  ,                                       !- Heating Maximum Air Flow per Zone Floor Area {m3/s-m2}
  ,                                       !- Heating Maximum Air Flow {m3/s}
  ,                                       !- Heating Maximum Air Flow Fraction
  ,                                       !- Design Zone Air Distribution Effectiveness in Cooling Mode
  ,                                       !- Design Zone Air Distribution Effectiveness in Heating Mode
  No,                                     !- Account for Dedicated Outdoor Air System
  NeutralSupplyAir,                       !- Dedicated Outdoor Air System Control Strategy
  autosize,                               !- Dedicated Outdoor Air Low Setpoint Temperature for Design {C}
  autosize;                               !- Dedicated Outdoor Air High Setpoint Temperature for Design {C}

OS:Node,
  {1c48a807-1ed8-4879-8154-a53b06ce8cc3}, !- Handle
  Node 3,                                 !- Name
  {ac15523a-f006-4568-b375-733a5f8971d1}, !- Inlet Port
  {1ab20d91-97fd-4a8c-b771-9b68d54148f0}; !- Outlet Port

OS:Node,
  {5bb5f04d-844b-4d5c-9ed5-33bfc81366c1}, !- Handle
  Node 4,                                 !- Name
  {f83a9ce6-c912-44c9-8a1f-99a8190fc201}, !- Inlet Port
  {803122b1-e97f-4a4a-be43-09c82cf9c6b9}; !- Outlet Port

OS:Node,
  {8bae6882-51e8-440a-b7f9-e120f0621429}, !- Handle
  Node 5,                                 !- Name
  {51a7e29a-15b0-42fc-950d-27136f747b47}, !- Inlet Port
  ;                                       !- Outlet Port

OS:Connection,
  {ac15523a-f006-4568-b375-733a5f8971d1}, !- Handle
  {12d14a29-44c9-4ae5-af3c-b92352dbdacb}, !- Name
  ,                                       !- Source Object
  10,                                     !- Outlet Port
  {1c48a807-1ed8-4879-8154-a53b06ce8cc3}, !- Target Object
  2;                                      !- Inlet Port

OS:Connection,
  {803122b1-e97f-4a4a-be43-09c82cf9c6b9}, !- Handle
  {27674cb4-34e0-454a-8a5f-9a2d74e7b2e2}, !- Name
  {5bb5f04d-844b-4d5c-9ed5-33bfc81366c1}, !- Source Object
  3,                                      !- Outlet Port
  ,                                       !- Target Object
  9;                                      !- Inlet Port

OS:AirLoopHVAC:ZoneSplitter,
  {9dfd3656-91ae-4de7-b5f0-715fddaff0b3}, !- Handle
  Air Loop HVAC Zone Splitter 1,          !- Name
  {1ab20d91-97fd-4a8c-b771-9b68d54148f0}, !- Inlet Node Name
  {1f3a8eb1-3ce4-4421-9e0e-2cf691d4f203}, !- Outlet Node Name 1
  {4893ce24-662d-4b36-be9b-09c0cb47ebdc}; !- Outlet Node Name 2

OS:AirLoopHVAC:ZoneMixer,
  {a618c407-1498-4213-bc36-3ff69a7baa01}, !- Handle
  Air Loop HVAC Zone Mixer 1,             !- Name
  {f83a9ce6-c912-44c9-8a1f-99a8190fc201}, !- Outlet Node Name
  {02a5697f-0ad6-4a28-8aa2-205192ef456a}, !- Inlet Node Name 1
  {59c999a8-7c15-4f7f-bdda-2df8b1de857c}; !- Inlet Node Name 2

OS:Connection,
  {1ab20d91-97fd-4a8c-b771-9b68d54148f0}, !- Handle
  {90ac7d36-e91c-46b2-a48c-2db8baceadc8}, !- Name
  {1c48a807-1ed8-4879-8154-a53b06ce8cc3}, !- Source Object
  3,                                      !- Outlet Port
  {9dfd3656-91ae-4de7-b5f0-715fddaff0b3}, !- Target Object
  2;                                      !- Inlet Port

OS:Connection,
  {f83a9ce6-c912-44c9-8a1f-99a8190fc201}, !- Handle
  {55a02062-d381-4b3f-b0ce-d1f75b2faba2}, !- Name
  {a618c407-1498-4213-bc36-3ff69a7baa01}, !- Source Object
  2,                                      !- Outlet Port
  {5bb5f04d-844b-4d5c-9ed5-33bfc81366c1}, !- Target Object
  2;                                      !- Inlet Port

! TrackingID:#[yAhOvL]
OS:ThermalZone,
  {eafb901e-c5a8-4bf2-849e-2e265d0c00b0}, !- Handle
  555_0,                                  !- Name
  ,                                       !- Multiplier
  ,                                       !- Ceiling Height {m}
  ,                                       !- Volume {m3}
  ,                                       !- Floor Area {m2}
  ,                                       !- Zone Inside Convection Algorithm
  ,                                       !- Zone Outside Convection Algorithm
  ,                                       !- Zone Conditioning Equipment List Name
  {82d6a271-1a95-4880-bd42-121e499e6487}, !- Zone Air Inlet Port List
  {0dea920a-8587-4936-bd47-d6890a0b6be5}, !- Zone Air Exhaust Port List
  {7622160e-f92e-4273-bd5c-ec90c99d4370}, !- Zone Air Node Name
  ,                                       !- Zone Return Air Node Name
  ,                                       !- Primary Daylighting Control Name
  ,                                       !- Fraction of Zone Controlled by Primary Daylighting Control
  ,                                       !- Secondary Daylighting Control Name
  ,                                       !- Fraction of Zone Controlled by Secondary Daylighting Control
  ,                                       !- Illuminance Map Name
  ,                                       !- Group Rendering Name
  ,                                       !- Thermostat Name
  No;                                     !- Use Ideal Air Loads

OS:Node,
  {26303025-444a-4c0a-b383-d6cffb933ee3}, !- Handle
  Node 7,                                 !- Name
  {7622160e-f92e-4273-bd5c-ec90c99d4370}, !- Inlet Port
  ;                                       !- Outlet Port

OS:Connection,
  {7622160e-f92e-4273-bd5c-ec90c99d4370}, !- Handle
  {c08b9d41-b1be-4cfa-83f3-9a5a019df997}, !- Name
  {eafb901e-c5a8-4bf2-849e-2e265d0c00b0}, !- Source Object
  11,                                     !- Outlet Port
  {26303025-444a-4c0a-b383-d6cffb933ee3}, !- Target Object
  2;                                      !- Inlet Port

OS:PortList,
  {82d6a271-1a95-4880-bd42-121e499e6487}, !- Handle
  {f2fc010d-0fb1-4d9c-8026-59bab72a43ad}, !- Name
  {eafb901e-c5a8-4bf2-849e-2e265d0c00b0}; !- HVAC Component

OS:PortList,
  {0dea920a-8587-4936-bd47-d6890a0b6be5}, !- Handle
  {608b881b-5a6e-4508-9029-510a47a0788d}, !- Name
  {eafb901e-c5a8-4bf2-849e-2e265d0c00b0}; !- HVAC Component

OS:Sizing:Zone,
  {51274d93-b5f0-4638-b4bb-2337e85d5b88}, !- Handle
  {eafb901e-c5a8-4bf2-849e-2e265d0c00b0}, !- Zone or ZoneList Name
  SupplyAirTemperature,                   !- Zone Cooling Design Supply Air Temperature Input Method
  14,                                     !- Zone Cooling Design Supply Air Temperature {C}
  11.11,                                  !- Zone Cooling Design Supply Air Temperature Difference {deltaC}
  SupplyAirTemperature,                   !- Zone Heating Design Supply Air Temperature Input Method
  40,                                     !- Zone Heating Design Supply Air Temperature {C}
  11.11,                                  !- Zone Heating Design Supply Air Temperature Difference {deltaC}
  0.0085,                                 !- Zone Cooling Design Supply Air Humidity Ratio {kg-H2O/kg-air}
  0.008,                                  !- Zone Heating Design Supply Air Humidity Ratio {kg-H2O/kg-air}
  ,                                       !- Zone Heating Sizing Factor
  ,                                       !- Zone Cooling Sizing Factor
  DesignDay,                              !- Cooling Design Air Flow Method
  ,                                       !- Cooling Design Air Flow Rate {m3/s}
  ,                                       !- Cooling Minimum Air Flow per Zone Floor Area {m3/s-m2}
  ,                                       !- Cooling Minimum Air Flow {m3/s}
  ,                                       !- Cooling Minimum Air Flow Fraction
  DesignDay,                              !- Heating Design Air Flow Method
  ,                                       !- Heating Design Air Flow Rate {m3/s}
  ,                                       !- Heating Maximum Air Flow per Zone Floor Area {m3/s-m2}
  ,                                       !- Heating Maximum Air Flow {m3/s}
  ,                                       !- Heating Maximum Air Flow Fraction
  ,                                       !- Design Zone Air Distribution Effectiveness in Cooling Mode
  ,                                       !- Design Zone Air Distribution Effectiveness in Heating Mode
  No,                                     !- Account for Dedicated Outdoor Air System
  NeutralSupplyAir,                       !- Dedicated Outdoor Air System Control Strategy
  autosize,                               !- Dedicated Outdoor Air Low Setpoint Temperature for Design {C}
  autosize;                               !- Dedicated Outdoor Air High Setpoint Temperature for Design {C}

OS:ZoneHVAC:EquipmentList,
  {b4b181fd-af6e-4c60-929c-75ab2cfa2652}, !- Handle
  Zone HVAC Equipment List 1,             !- Name
  {eafb901e-c5a8-4bf2-849e-2e265d0c00b0}, !- Thermal Zone
  {d0bbcba5-3d40-4a4b-8ae9-1555119c52e1}, !- Zone Equipment 1
  1,                                      !- Zone Equipment Cooling Sequence 1
  1;                                      !- Zone Equipment Heating or No-Load Sequence 1

! TrackingID:#[I8lsWN]
OS:Sizing:Zone,
  {11a75686-aa54-4c7d-b2e5-417e30fbefe5}, !- Handle
  {eafb901e-c5a8-4bf2-849e-2e265d0c00b0}, !- Zone or ZoneList Name
  SupplyAirTemperature,                   !- Zone Cooling Design Supply Air Temperature Input Method
  14,                                     !- Zone Cooling Design Supply Air Temperature {C}
  11.11,                                  !- Zone Cooling Design Supply Air Temperature Difference {deltaC}
  SupplyAirTemperature,                   !- Zone Heating Design Supply Air Temperature Input Method
  40,                                     !- Zone Heating Design Supply Air Temperature {C}
  11.11,                                  !- Zone Heating Design Supply Air Temperature Difference {deltaC}
  0.0085,                                 !- Zone Cooling Design Supply Air Humidity Ratio {kg-H2O/kg-air}
  0.008,                                  !- Zone Heating Design Supply Air Humidity Ratio {kg-H2O/kg-air}
  ,                                       !- Zone Heating Sizing Factor
  ,                                       !- Zone Cooling Sizing Factor
  DesignDay,                              !- Cooling Design Air Flow Method
  ,                                       !- Cooling Design Air Flow Rate {m3/s}
  ,                                       !- Cooling Minimum Air Flow per Zone Floor Area {m3/s-m2}
  ,                                       !- Cooling Minimum Air Flow {m3/s}
  ,                                       !- Cooling Minimum Air Flow Fraction
  DesignDay,                              !- Heating Design Air Flow Method
  ,                                       !- Heating Design Air Flow Rate {m3/s}
  ,                                       !- Heating Maximum Air Flow per Zone Floor Area {m3/s-m2}
  ,                                       !- Heating Maximum Air Flow {m3/s}
  ,                                       !- Heating Maximum Air Flow Fraction
  ,                                       !- Design Zone Air Distribution Effectiveness in Cooling Mode
  ,                                       !- Design Zone Air Distribution Effectiveness in Heating Mode
  No,                                     !- Account for Dedicated Outdoor Air System
  NeutralSupplyAir,                       !- Dedicated Outdoor Air System Control Strategy
  autosize,                               !- Dedicated Outdoor Air Low Setpoint Temperature for Design {C}
  autosize;                               !- Dedicated Outdoor Air High Setpoint Temperature for Design {C}

OS:Coil:Heating:Water,
  {6084175b-e23f-4ae7-87bf-30abe694fa15}, !- Handle
  Coil Heating Water 2,                   !- Name
  {851f90c4-0f5a-491d-ae80-119e7e6d18be}, !- Availability Schedule Name
  ,                                       !- U-Factor Times Area Value {W/K}
  ,                                       !- Maximum Water Flow Rate {m3/s}
  ,                                       !- Water Inlet Node Name
  ,                                       !- Water Outlet Node Name
  ,                                       !- Air Inlet Node Name
  ,                                       !- Air Outlet Node Name
  ,                                       !- Performance Input Method
  ,                                       !- Rated Capacity {W}
  ,                                       !- Rated Inlet Water Temperature {C}
  ,                                       !- Rated Inlet Air Temperature {C}
  ,                                       !- Rated Outlet Water Temperature {C}
  ,                                       !- Rated Outlet Air Temperature {C}
  ;                                       !- Rated Ratio for Air and Water Convection

! TrackingID:#[2MI2ar]
OS:AirTerminal:SingleDuct:VAV:Reheat,
  {d0bbcba5-3d40-4a4b-8ae9-1555119c52e1}, !- Handle
  Air Terminal Single Duct VAV Reheat 1,  !- Name
  {851f90c4-0f5a-491d-ae80-119e7e6d18be}, !- Availability Schedule Name
  {c696eadf-2c59-49be-9b3a-1bed275482b4}, !- Air Inlet Node Name
  AutoSize,                               !- Maximum Air Flow Rate {m3/s}
  Constant,                               !- Zone Minimum Air Flow Input Method
  0.3,                                    !- Constant Minimum Air Flow Fraction
  0,                                      !- Fixed Minimum Air Flow Rate {m3/s}
  ,                                       !- Minimum Air Flow Fraction Schedule Name
  {2963aa62-f98a-4f4c-a914-16d9c7134723}, !- Reheat Coil Name
  AutoSize,                               !- Maximum Hot Water or Steam Flow Rate {m3/s}
  0,                                      !- Minimum Hot Water or Steam Flow Rate {m3/s}
  {51a7e29a-15b0-42fc-950d-27136f747b47}, !- Air Outlet Node Name
  0.001,                                  !- Convergence Tolerance
  Normal,                                 !- Damper Heating Action
  AutoSize,                               !- Maximum Flow per Zone Floor Area During Reheat {m3/s-m2}
  AutoSize,                               !- Maximum Flow Fraction During Reheat
  35,                                     !- Maximum Reheat Air Temperature {C}
  No;                                     !- Control For Outdoor Air

! TrackingID:#[jyaNeM]
OS:Coil:Heating:Water,
  {2963aa62-f98a-4f4c-a914-16d9c7134723}, !- Handle
  Coil Heating Water 3,                   !- Name
  {851f90c4-0f5a-491d-ae80-119e7e6d18be}, !- Availability Schedule Name
  ,                                       !- U-Factor Times Area Value {W/K}
  ,                                       !- Maximum Water Flow Rate {m3/s}
  ,                                       !- Water Inlet Node Name
  ,                                       !- Water Outlet Node Name
  ,                                       !- Air Inlet Node Name
  ,                                       !- Air Outlet Node Name
  ,                                       !- Performance Input Method
  ,                                       !- Rated Capacity {W}
  ,                                       !- Rated Inlet Water Temperature {C}
  ,                                       !- Rated Inlet Air Temperature {C}
  ,                                       !- Rated Outlet Water Temperature {C}
  ,                                       !- Rated Outlet Air Temperature {C}
  ;                                       !- Rated Ratio for Air and Water Convection

OS:Node,
  {ee5afba7-5cab-4e3f-91d7-7b3176ae9736}, !- Handle
  Node 8,                                 !- Name
  ,                                       !- Inlet Port
  {02a5697f-0ad6-4a28-8aa2-205192ef456a}; !- Outlet Port

OS:Connection,
  {02a5697f-0ad6-4a28-8aa2-205192ef456a}, !- Handle
  {1e8734d5-77ab-41c7-8b4c-ff08bc73a2ad}, !- Name
  {ee5afba7-5cab-4e3f-91d7-7b3176ae9736}, !- Source Object
  3,                                      !- Outlet Port
  {a618c407-1498-4213-bc36-3ff69a7baa01}, !- Target Object
  3;                                      !- Inlet Port

OS:Node,
  {fa8e980a-ef8c-46b2-9700-b3eaaf1b71b6}, !- Handle
  Node 9,                                 !- Name
  {1f3a8eb1-3ce4-4421-9e0e-2cf691d4f203}, !- Inlet Port
  {c696eadf-2c59-49be-9b3a-1bed275482b4}; !- Outlet Port

OS:Connection,
  {1f3a8eb1-3ce4-4421-9e0e-2cf691d4f203}, !- Handle
  {79e2f7be-3bbf-4bfe-959a-35a84edd5b9a}, !- Name
  {9dfd3656-91ae-4de7-b5f0-715fddaff0b3}, !- Source Object
  3,                                      !- Outlet Port
  {fa8e980a-ef8c-46b2-9700-b3eaaf1b71b6}, !- Target Object
  2;                                      !- Inlet Port

OS:Connection,
  {c696eadf-2c59-49be-9b3a-1bed275482b4}, !- Handle
  {f82293de-f0c1-46fa-857b-2a21c9238752}, !- Name
  {fa8e980a-ef8c-46b2-9700-b3eaaf1b71b6}, !- Source Object
  3,                                      !- Outlet Port
  {d0bbcba5-3d40-4a4b-8ae9-1555119c52e1}, !- Target Object
  3;                                      !- Inlet Port

OS:Connection,
  {51a7e29a-15b0-42fc-950d-27136f747b47}, !- Handle
  {d51c7678-a3a4-4e2d-8f86-d721afcf4886}, !- Name
  {d0bbcba5-3d40-4a4b-8ae9-1555119c52e1}, !- Source Object
  12,                                     !- Outlet Port
  {8bae6882-51e8-440a-b7f9-e120f0621429}, !- Target Object
  2;                                      !- Inlet Port

! TrackingID:#[UHY8YE]
OS:ThermalZone,
  {d717424e-50a9-4d46-9f07-3d6dea52acd7}, !- Handle
  555_1,                                  !- Name
  ,                                       !- Multiplier
  ,                                       !- Ceiling Height {m}