
OS:Version,
  {2403445d-2a76-4a94-9988-8fd7d34fde5b}, !- Handle
  2.4.0;                                  !- Version Identifier

OS:AirLoopHVAC,
  {a061a4a5-0bcb-490e-b027-d4016cf17c7b}, !- Handle
  Air Loop HVAC 1,                        !- Name
  ,                                       !- Controller List Name
  {2b120ebc-8ef9-4f58-b1a8-57787768a50d}, !- Availability Schedule
  {a3fa1bb8-9547-4a19-b1c8-8245e4b109c8}, !- Availability Manager List Name
  AutoSize,                               !- Design Supply Air Flow Rate {m3/s}
  ,                                       !- Branch List Name
  ,                                       !- Connector List Name
  {1d40b96c-379a-47d9-a935-5be47692df79}, !- Supply Side Inlet Node Name
  {cf91bfc6-28cc-4fb3-8999-4fd18615fbb6}, !- Demand Side Outlet Node Name
  {f3aee5ef-daf7-4c83-a8de-96044298d70f}, !- Demand Side Inlet Node A
  {550a3295-8d3a-464c-b6ed-9b2aa887d3ca}, !- Supply Side Outlet Node A
  ,                                       !- Demand Side Inlet Node B
  ,                                       !- Supply Side Outlet Node B
  ,                                       !- Return Air Bypass Flow Temperature Setpoint Schedule Name
  {6b02cc30-04cd-4a67-8462-e2ca6b5be612}, !- Demand Mixer Name
  {1bb11924-b51f-4a20-9952-19d6a7bde550}, !- Demand Splitter A Name
  ,                                       !- Demand Splitter B Name
  ;                                       !- Supply Splitter Name

OS:Node,
  {5ff5188a-cbef-440c-9970-aae3b77d9a68}, !- Handle
  Node 1,                                 !- Name
  {1d40b96c-379a-47d9-a935-5be47692df79}, !- Inlet Port
  {c2f429e3-c18a-4e30-a633-09623cb569d2}; !- Outlet Port

OS:Node,
  {17f0c3f8-47cc-4153-8c01-8ebbd65627bf}, !- Handle
  Node 2,                                 !- Name
  {7ba8c635-06c6-4564-8058-62c37185ed10}, !- Inlet Port
  {550a3295-8d3a-464c-b6ed-9b2aa887d3ca}; !- Outlet Port

OS:Connection,
  {1d40b96c-379a-47d9-a935-5be47692df79}, !- Handle
  {99e9a6b0-ad06-423e-a7f1-8b5060bd3db1}, !- Name
  {a061a4a5-0bcb-490e-b027-d4016cf17c7b}, !- Source Object
  8,                                      !- Outlet Port
  {5ff5188a-cbef-440c-9970-aae3b77d9a68}, !- Target Object
  2;                                      !- Inlet Port

OS:Connection,
  {550a3295-8d3a-464c-b6ed-9b2aa887d3ca}, !- Handle
  {07109dd5-7813-4da9-a7de-36f7e324259d}, !- Name
  {17f0c3f8-47cc-4153-8c01-8ebbd65627bf}, !- Source Object
  3,                                      !- Outlet Port
  {a061a4a5-0bcb-490e-b027-d4016cf17c7b}, !- Target Object
  11;                                     !- Inlet Port

OS:Node,
  {a3061456-4dde-404a-a0b4-2bd778fe0694}, !- Handle
  Node 3,                                 !- Name
  {f3aee5ef-daf7-4c83-a8de-96044298d70f}, !- Inlet Port
  {d9b8611c-b67d-43dd-b778-f05c4c8805e0}; !- Outlet Port

OS:Node,
  {ae9b0e47-accf-4459-96ef-5018428cf6b9}, !- Handle
  Node 4,                                 !- Name
  {f372d42a-68cd-4fa5-8c84-b837aad37f77}, !- Inlet Port
  {cf91bfc6-28cc-4fb3-8999-4fd18615fbb6}; !- Outlet Port

OS:Node,
  {3b6a70d4-9f02-4bf9-87e0-fc83915b5283}, !- Handle
  Node 5,                                 !- Name
  {5021faf6-5838-4eaf-86be-0a0be816d2f5}, !- Inlet Port
  {1b58da57-8b26-4e14-b2ee-aa5ddc4a3ac2}; !- Outlet Port

OS:Connection,
  {f3aee5ef-daf7-4c83-a8de-96044298d70f}, !- Handle
  {275b67a4-68cc-4775-8282-d9a4be06e1ba}, !- Name
  {a061a4a5-0bcb-490e-b027-d4016cf17c7b}, !- Source Object
  10,                                     !- Outlet Port
  {a3061456-4dde-404a-a0b4-2bd778fe0694}, !- Target Object
  2;                                      !- Inlet Port

OS:Connection,
  {cf91bfc6-28cc-4fb3-8999-4fd18615fbb6}, !- Handle
  {3abda1b1-8da6-4a84-8962-eda52ed70703}, !- Name
  {ae9b0e47-accf-4459-96ef-5018428cf6b9}, !- Source Object
  3,                                      !- Outlet Port
  {a061a4a5-0bcb-490e-b027-d4016cf17c7b}, !- Target Object
  9;                                      !- Inlet Port

OS:AirLoopHVAC:ZoneSplitter,
  {1bb11924-b51f-4a20-9952-19d6a7bde550}, !- Handle
  Air Loop HVAC Zone Splitter 1,          !- Name
  {d9b8611c-b67d-43dd-b778-f05c4c8805e0}, !- Inlet Node Name
  {5021faf6-5838-4eaf-86be-0a0be816d2f5}; !- Outlet Node Name 1

OS:AirLoopHVAC:ZoneMixer,
  {6b02cc30-04cd-4a67-8462-e2ca6b5be612}, !- Handle
  Air Loop HVAC Zone Mixer 1,             !- Name
  {f372d42a-68cd-4fa5-8c84-b837aad37f77}, !- Outlet Node Name
  {1b58da57-8b26-4e14-b2ee-aa5ddc4a3ac2}; !- Inlet Node Name 1

OS:Connection,
  {d9b8611c-b67d-43dd-b778-f05c4c8805e0}, !- Handle
  {7affec42-adc6-47c4-9073-be31504f2b70}, !- Name
  {a3061456-4dde-404a-a0b4-2bd778fe0694}, !- Source Object
  3,                                      !- Outlet Port
  {1bb11924-b51f-4a20-9952-19d6a7bde550}, !- Target Object
  2;                                      !- Inlet Port

OS:Connection,
  {5021faf6-5838-4eaf-86be-0a0be816d2f5}, !- Handle
  {c318f591-53e1-4786-8df1-d5c2767a689a}, !- Name
  {1bb11924-b51f-4a20-9952-19d6a7bde550}, !- Source Object
  3,                                      !- Outlet Port
  {3b6a70d4-9f02-4bf9-87e0-fc83915b5283}, !- Target Object
  2;                                      !- Inlet Port

OS:Connection,
  {1b58da57-8b26-4e14-b2ee-aa5ddc4a3ac2}, !- Handle
  {ea905010-dea2-4de1-92b9-d2e05dfdeb18}, !- Name
  {3b6a70d4-9f02-4bf9-87e0-fc83915b5283}, !- Source Object
  3,                                      !- Outlet Port
  {6b02cc30-04cd-4a67-8462-e2ca6b5be612}, !- Target Object
  3;                                      !- Inlet Port

OS:Connection,
  {f372d42a-68cd-4fa5-8c84-b837aad37f77}, !- Handle
  {5f6ee980-4c8e-4699-ba00-c8263bda946f}, !- Name
  {6b02cc30-04cd-4a67-8462-e2ca6b5be612}, !- Source Object
  2,                                      !- Outlet Port
  {ae9b0e47-accf-4459-96ef-5018428cf6b9}, !- Target Object
  2;                                      !- Inlet Port

OS:Sizing:System,
  {742b31e8-d540-4e58-9fec-663ad8c6058d}, !- Handle
  {a061a4a5-0bcb-490e-b027-d4016cf17c7b}, !- AirLoop Name
  Sensible,                               !- Type of Load to Size On
  Autosize,                               !- Design Outdoor Air Flow Rate {m3/s}
  0.3,                                    !- Minimum System Air Flow Ratio
  7,                                      !- Preheat Design Temperature {C}
  0.008,                                  !- Preheat Design Humidity Ratio {kg-H2O/kg-Air}
  12.8,                                   !- Precool Design Temperature {C}
  0.008,                                  !- Precool Design Humidity Ratio {kg-H2O/kg-Air}
  12.8,                                   !- Central Cooling Design Supply Air Temperature {C}
  16.7,                                   !- Central Heating Design Supply Air Temperature {C}
  NonCoincident,                          !- Sizing Option
  Yes,                                    !- 100% Outdoor Air in Cooling
  Yes,                                    !- 100% Outdoor Air in Heating
  0.0085,                                 !- Central Cooling Design Supply Air Humidity Ratio {kg-H2O/kg-Air}
  0.008,                                  !- Central Heating Design Supply Air Humidity Ratio {kg-H2O/kg-Air}
  DesignDay,                              !- Cooling Design Air Flow Method
  0,                                      !- Cooling Design Air Flow Rate {m3/s}
  DesignDay,                              !- Heating Design Air Flow Method
  0,                                      !- Heating Design Air Flow Rate {m3/s}
  ZoneSum,                                !- System Outdoor Air Method
  1,                                      !- Zone Maximum Outdoor Air Fraction {dimensionless}
  0.0099676501,                           !- Cooling Supply Air Flow Rate Per Floor Area {m3/s-m2}
  1,                                      !- Cooling Fraction of Autosized Cooling Supply Air Flow Rate
  3.9475456e-005,                         !- Cooling Supply Air Flow Rate Per Unit Cooling Capacity {m3/s-W}
  0.0099676501,                           !- Heating Supply Air Flow Rate Per Floor Area {m3/s-m2}
  1,                                      !- Heating Fraction of Autosized Heating Supply Air Flow Rate
  1,                                      !- Heating Fraction of Autosized Cooling Supply Air Flow Rate
  3.1588213e-005,                         !- Heating Supply Air Flow Rate Per Unit Heating Capacity {m3/s-W}
  CoolingDesignCapacity,                  !- Cooling Design Capacity Method
  autosize,                               !- Cooling Design Capacity {W}
  234.7,                                  !- Cooling Design Capacity Per Floor Area {W/m2}
  1,                                      !- Fraction of Autosized Cooling Design Capacity
  HeatingDesignCapacity,                  !- Heating Design Capacity Method
  autosize,                               !- Heating Design Capacity {W}
  157,                                    !- Heating Design Capacity Per Floor Area {W/m2}
  1,                                      !- Fraction of Autosized Heating Design Capacity
  OnOff;                                  !- Central Cooling Capacity Control Method

OS:Schedule:Constant,
  {2b120ebc-8ef9-4f58-b1a8-57787768a50d}, !- Handle
  Always On Discrete,                     !- Name
  {0eda3a72-f098-4ae3-89b4-cd48105bd23b}, !- Schedule Type Limits Name
  1;                                      !- Value

OS:ScheduleTypeLimits,
  {0eda3a72-f098-4ae3-89b4-cd48105bd23b}, !- Handle
  OnOff,                                  !- Name
  0,                                      !- Lower Limit Value
  1,                                      !- Upper Limit Value
  Discrete,                               !- Numeric Type
  Availability;                           !- Unit Type

OS:AvailabilityManagerAssignmentList,
  {a3fa1bb8-9547-4a19-b1c8-8245e4b109c8}, !- Handle
  Air Loop HVAC 1 AvailabilityManagerAssignmentList; !- Name

OS:Coil:Heating:Water,
  {33ea302d-f663-40be-b2f1-2c7f7acb5569}, !- Handle
  Coil Heating Water 1,                   !- Name
  {2b120ebc-8ef9-4f58-b1a8-57787768a50d}, !- Availability Schedule Name
  ,                                       !- U-Factor Times Area Value {W/K}
  ,                                       !- Maximum Water Flow Rate {m3/s}
  ,                                       !- Water Inlet Node Name
  ,                                       !- Water Outlet Node Name
  {c2f429e3-c18a-4e30-a633-09623cb569d2}, !- Air Inlet Node Name
  {7ba8c635-06c6-4564-8058-62c37185ed10}, !- Air Outlet Node Name
  ,                                       !- Performance Input Method
  ,                                       !- Rated Capacity {W}
  50,                                     !- Rated Inlet Water Temperature {C}
  ,                                       !- Rated Inlet Air Temperature {C}
  71.1,                                   !- Rated Outlet Water Temperature {C}
  ,                                       !- Rated Outlet Air Temperature {C}
  ;                                       !- Rated Ratio for Air and Water Convection

OS:Connection,
  {c2f429e3-c18a-4e30-a633-09623cb569d2}, !- Handle
  {2788bdd5-b999-4cb1-95ee-dd6ec5999ecc}, !- Name
  {5ff5188a-cbef-440c-9970-aae3b77d9a68}, !- Source Object
  3,                                      !- Outlet Port
  {33ea302d-f663-40be-b2f1-2c7f7acb5569}, !- Target Object
  7;                                      !- Inlet Port

OS:Connection,
  {7ba8c635-06c6-4564-8058-62c37185ed10}, !- Handle
  {c278d020-9a5d-4a04-a91b-59fea51cbabd}, !- Name
  {33ea302d-f663-40be-b2f1-2c7f7acb5569}, !- Source Object
  8,                                      !- Outlet Port
  {17f0c3f8-47cc-4153-8c01-8ebbd65627bf}, !- Target Object
  2;                                      !- Inlet Port

