
OS:Version,
  {43d81003-51f8-4e0e-a70d-6b24ef23dece}, !- Handle
  2.4.0;                                  !- Version Identifier

! TrackingID:#[NF4vWL]
OS:AirLoopHVAC,
  {4297795b-29b9-46bb-b11a-623119400ae8}, !- Handle
  Air Loop HVAC 1,                        !- Name
  ,                                       !- Controller List Name
  {4457bfa0-fd81-4d47-a522-bec979e8e50e}, !- Availability Schedule
  {636c100f-14c1-40c0-a33f-5c478baadb41}, !- Availability Manager List Name
  AutoSize,                               !- Design Supply Air Flow Rate {m3/s}
  ,                                       !- Branch List Name
  ,                                       !- Connector List Name
  {e611d8e1-69bd-43e3-98af-347a69b0493e}, !- Supply Side Inlet Node Name
  {652d8ebc-2618-4ebd-b4df-80d951aca280}, !- Demand Side Outlet Node Name
  {00df25b5-d03f-4099-895a-97d5921446a5}, !- Demand Side Inlet Node A
  {b30cff06-1182-4095-9e6c-30c5398f42ac}, !- Supply Side Outlet Node A
  ,                                       !- Demand Side Inlet Node B
  ,                                       !- Supply Side Outlet Node B
  ,                                       !- Return Air Bypass Flow Temperature Setpoint Schedule Name
  {781d043d-6730-444a-b761-eb597403770f}, !- Demand Mixer Name
  {483dec4e-411f-40c7-8b00-6d9f1f6022cb}, !- Demand Splitter A Name
  ,                                       !- Demand Splitter B Name
  ;                                       !- Supply Splitter Name

OS:Node,
  {13461175-c4c1-43c8-974a-ce2225ea32db}, !- Handle
  Node 1,                                 !- Name
  {e611d8e1-69bd-43e3-98af-347a69b0493e}, !- Inlet Port
  {b0d1eff1-98de-4060-838b-f2165429ecd2}; !- Outlet Port

OS:Node,
  {baec53a2-8dd9-4011-9732-6b90537e1403}, !- Handle
  Node 2,                                 !- Name
  {cf6f57f7-f138-4a0c-90cc-ce0f7136bcb8}, !- Inlet Port
  {b30cff06-1182-4095-9e6c-30c5398f42ac}; !- Outlet Port

OS:Connection,
  {e611d8e1-69bd-43e3-98af-347a69b0493e}, !- Handle
  {02118253-3f07-4c2c-bbdc-31730f24e645}, !- Name
  {4297795b-29b9-46bb-b11a-623119400ae8}, !- Source Object
  8,                                      !- Outlet Port
  {13461175-c4c1-43c8-974a-ce2225ea32db}, !- Target Object
  2;                                      !- Inlet Port

OS:Connection,
  {b30cff06-1182-4095-9e6c-30c5398f42ac}, !- Handle
  {e08c93ce-1aba-4e8e-b262-b3981b69714c}, !- Name
  {baec53a2-8dd9-4011-9732-6b90537e1403}, !- Source Object
  3,                                      !- Outlet Port
  {4297795b-29b9-46bb-b11a-623119400ae8}, !- Target Object
  11;                                     !- Inlet Port

OS:Node,
  {5d56355e-fa2f-4859-9304-c5ebc42aafd3}, !- Handle
  Node 3,                                 !- Name
  {00df25b5-d03f-4099-895a-97d5921446a5}, !- Inlet Port
  {dade985e-eae3-44ae-8c33-ddcc5abead20}; !- Outlet Port

OS:Node,
  {1d9f621c-5810-454d-bf28-388cdda7955f}, !- Handle
  Node 4,                                 !- Name
  {5b9c3b25-913e-4963-ae89-8e4713d9e2b3}, !- Inlet Port
  {652d8ebc-2618-4ebd-b4df-80d951aca280}; !- Outlet Port

OS:Node,
  {e88464d5-a732-4074-8a67-8395e236b959}, !- Handle
  Node 5,                                 !- Name
  {1b0bd1ed-2637-41fe-b2d3-3fc6b49cd9b8}, !- Inlet Port
  {72f65360-4b26-4eea-bd9f-f66ed576d8cf}; !- Outlet Port

OS:Connection,
  {00df25b5-d03f-4099-895a-97d5921446a5}, !- Handle
  {f803dbb2-3bb7-406a-a28c-fee88761b37d}, !- Name
  {4297795b-29b9-46bb-b11a-623119400ae8}, !- Source Object
  10,                                     !- Outlet Port
  {5d56355e-fa2f-4859-9304-c5ebc42aafd3}, !- Target Object
  2;                                      !- Inlet Port

OS:Connection,
  {652d8ebc-2618-4ebd-b4df-80d951aca280}, !- Handle
  {ff15c425-41cc-4ebe-9fc8-d62c9b213326}, !- Name
  {1d9f621c-5810-454d-bf28-388cdda7955f}, !- Source Object
  3,                                      !- Outlet Port
  {4297795b-29b9-46bb-b11a-623119400ae8}, !- Target Object
  9;                                      !- Inlet Port

OS:AirLoopHVAC:ZoneSplitter,
  {483dec4e-411f-40c7-8b00-6d9f1f6022cb}, !- Handle
  Air Loop HVAC Zone Splitter 1,          !- Name
  {dade985e-eae3-44ae-8c33-ddcc5abead20}, !- Inlet Node Name
  {b5731201-555f-476b-8bfc-dec8420d0df5}; !- Outlet Node Name 1

OS:AirLoopHVAC:ZoneMixer,
  {781d043d-6730-444a-b761-eb597403770f}, !- Handle
  Air Loop HVAC Zone Mixer 1,             !- Name
  {5b9c3b25-913e-4963-ae89-8e4713d9e2b3}, !- Outlet Node Name
  {a0d21d01-a311-4a4d-841f-0e0ff3b6d343}; !- Inlet Node Name 1

OS:Connection,
  {dade985e-eae3-44ae-8c33-ddcc5abead20}, !- Handle
  {c5efc8e6-d8a4-42de-8849-a7ff0eb79f6a}, !- Name
  {5d56355e-fa2f-4859-9304-c5ebc42aafd3}, !- Source Object
  3,                                      !- Outlet Port
  {483dec4e-411f-40c7-8b00-6d9f1f6022cb}, !- Target Object
  2;                                      !- Inlet Port

OS:Connection,
  {5b9c3b25-913e-4963-ae89-8e4713d9e2b3}, !- Handle
  {e8996274-4897-476c-8ccc-e05a16e8eaf0}, !- Name
  {781d043d-6730-444a-b761-eb597403770f}, !- Source Object
  2,                                      !- Outlet Port
  {1d9f621c-5810-454d-bf28-388cdda7955f}, !- Target Object
  2;                                      !- Inlet Port

OS:Sizing:System,
  {faf1c3cf-1ec3-4c18-90ab-689fe8bc8e64}, !- Handle
  {4297795b-29b9-46bb-b11a-623119400ae8}, !- AirLoop Name
  Sensible,                               !- Type of Load to Size On
  Autosize,                               !- Design Outdoor Air Flow Rate {m3/s}
  0.3,                                    !- Minimum System Air Flow Ratio
  7,                                      !- Preheat Design Temperature {C}
  0.008,                                  !- Preheat Design Humidity Ratio {kg-H2O/kg-Air}
  12.8,                                   !- Precool Design Temperature {C}
  0.008,                                  !- Precool Design Humidity Ratio {kg-H2O/kg-Air}
  12.8,                                   !- Central Cooling Design Supply Air Temperature {C}
  16.7,                                   !- Central Heating Design Supply Air Temperature {C}
  NonCoincident,                          !- Sizing Option
  Yes,                                    !- 100% Outdoor Air in Cooling
  Yes,                                    !- 100% Outdoor Air in Heating
  0.0085,                                 !- Central Cooling Design Supply Air Humidity Ratio {kg-H2O/kg-Air}
  0.008,                                  !- Central Heating Design Supply Air Humidity Ratio {kg-H2O/kg-Air}
  DesignDay,                              !- Cooling Design Air Flow Method
  0,                                      !- Cooling Design Air Flow Rate {m3/s}
  DesignDay,                              !- Heating Design Air Flow Method
  0,                                      !- Heating Design Air Flow Rate {m3/s}
  ZoneSum,                                !- System Outdoor Air Method
  1,                                      !- Zone Maximum Outdoor Air Fraction {dimensionless}
  0.0099676501,                           !- Cooling Supply Air Flow Rate Per Floor Area {m3/s-m2}
  1,                                      !- Cooling Fraction of Autosized Cooling Supply Air Flow Rate
  3.9475456e-005,                         !- Cooling Supply Air Flow Rate Per Unit Cooling Capacity {m3/s-W}
  0.0099676501,                           !- Heating Supply Air Flow Rate Per Floor Area {m3/s-m2}
  1,                                      !- Heating Fraction of Autosized Heating Supply Air Flow Rate
  1,                                      !- Heating Fraction of Autosized Cooling Supply Air Flow Rate
  3.1588213e-005,                         !- Heating Supply Air Flow Rate Per Unit Heating Capacity {m3/s-W}
  CoolingDesignCapacity,                  !- Cooling Design Capacity Method
  autosize,                               !- Cooling Design Capacity {W}
  234.7,                                  !- Cooling Design Capacity Per Floor Area {W/m2}
  1,                                      !- Fraction of Autosized Cooling Design Capacity
  HeatingDesignCapacity,                  !- Heating Design Capacity Method
  autosize,                               !- Heating Design Capacity {W}
  157,                                    !- Heating Design Capacity Per Floor Area {W/m2}
  1,                                      !- Fraction of Autosized Heating Design Capacity
  OnOff;                                  !- Central Cooling Capacity Control Method

OS:Schedule:Constant,
  {4457bfa0-fd81-4d47-a522-bec979e8e50e}, !- Handle
  Always On Discrete,                     !- Name
  {152b3816-8475-4938-8caf-0442377048da}, !- Schedule Type Limits Name
  1;                                      !- Value

OS:ScheduleTypeLimits,
  {152b3816-8475-4938-8caf-0442377048da}, !- Handle
  OnOff,                                  !- Name
  0,                                      !- Lower Limit Value
  1,                                      !- Upper Limit Value
  Discrete,                               !- Numeric Type
  Availability;                           !- Unit Type

OS:AvailabilityManagerAssignmentList,
  {636c100f-14c1-40c0-a33f-5c478baadb41}, !- Handle
  Air Loop HVAC 1 AvailabilityManagerAssignmentList; !- Name

! TrackingID:#[Vgga3g]
OS:Fan:VariableVolume,
  {74ac93d6-ca52-4f54-b9f1-2e38ec80d12b}, !- Handle
  Fan Variable Volume 1,                  !- Name
  {4457bfa0-fd81-4d47-a522-bec979e8e50e}, !- Availability Schedule Name
  0.6045,                                 !- Fan Efficiency
  1017.592,                               !- Pressure Rise {Pa}
  Autosize,                               !- Maximum Flow Rate {m3/s}
  FixedFlowRate,                          !- Fan Power Minimum Flow Rate Input Method
  0,                                      !- Fan Power Minimum Flow Fraction
  0,                                      !- Fan Power Minimum Air Flow Rate {m3/s}
  0.93,                                   !- Motor Efficiency
  1,                                      !- Motor In Airstream Fraction
  0.040759894,                            !- Fan Power Coefficient 1
  0.08804497,                             !- Fan Power Coefficient 2
  -0.07292612,                            !- Fan Power Coefficient 3
  0.943739823,                            !- Fan Power Coefficient 4
  0,                                      !- Fan Power Coefficient 5
  {b0d1eff1-98de-4060-838b-f2165429ecd2}, !- Air Inlet Node Name
  {cf6f57f7-f138-4a0c-90cc-ce0f7136bcb8}, !- Air Outlet Node Name
  ;                                       !- End-Use Subcategory

OS:Connection,
  {b0d1eff1-98de-4060-838b-f2165429ecd2}, !- Handle
  {4ce76610-8d9d-45b1-a80d-1eb220e00f75}, !- Name
  {13461175-c4c1-43c8-974a-ce2225ea32db}, !- Source Object
  3,                                      !- Outlet Port
  {74ac93d6-ca52-4f54-b9f1-2e38ec80d12b}, !- Target Object
  16;                                     !- Inlet Port

OS:Connection,
  {cf6f57f7-f138-4a0c-90cc-ce0f7136bcb8}, !- Handle
  {f51cb46a-a36f-4296-a92f-597b0addcf01}, !- Name
  {74ac93d6-ca52-4f54-b9f1-2e38ec80d12b}, !- Source Object
  17,                                     !- Outlet Port
  {baec53a2-8dd9-4011-9732-6b90537e1403}, !- Target Object
  2;                                      !- Inlet Port

! TrackingID:#[0s9ZzI]
OS:ThermalZone,
  {1fb66c0f-fe59-434a-bc7d-b48215a001dd}, !- Handle
  zone_0,                                 !- Name
  ,                                       !- Multiplier
  ,                                       !- Ceiling Height {m}
  ,                                       !- Volume {m3}
  ,                                       !- Floor Area {m2}
  ,                                       !- Zone Inside Convection Algorithm
  ,                                       !- Zone Outside Convection Algorithm
  ,                                       !- Zone Conditioning Equipment List Name
  {ed4cc891-8cf4-4bb0-a4eb-2e45ece53162}, !- Zone Air Inlet Port List
  {43cfe612-83a9-4898-8136-60da802abe06}, !- Zone Air Exhaust Port List
  {3b673bb5-94f2-455d-9d71-691fd629daa8}, !- Zone Air Node Name
  {c44ba856-1d70-4fe7-8746-92cddeb6489d}, !- Zone Return Air Node Name
  ,                                       !- Primary Daylighting Control Name
  ,                                       !- Fraction of Zone Controlled by Primary Daylighting Control
  ,                                       !- Secondary Daylighting Control Name
  ,                                       !- Fraction of Zone Controlled by Secondary Daylighting Control
  ,                                       !- Illuminance Map Name
  ,                                       !- Group Rendering Name
  ,                                       !- Thermostat Name
  No;                                     !- Use Ideal Air Loads

OS:Node,
  {13c9bb06-3d7f-4c6f-bcbf-8932b37acbef}, !- Handle
  Node 6,                                 !- Name
  {3b673bb5-94f2-455d-9d71-691fd629daa8}, !- Inlet Port
  ;                                       !- Outlet Port

OS:Connection,
  {3b673bb5-94f2-455d-9d71-691fd629daa8}, !- Handle
  {e17ebe60-87f0-48aa-8b10-cef5c822e7c1}, !- Name
  {1fb66c0f-fe59-434a-bc7d-b48215a001dd}, !- Source Object
  11,                                     !- Outlet Port
  {13c9bb06-3d7f-4c6f-bcbf-8932b37acbef}, !- Target Object
  2;                                      !- Inlet Port

OS:PortList,
  {ed4cc891-8cf4-4bb0-a4eb-2e45ece53162}, !- Handle
  {22ac273d-203b-40ff-b325-8d71ae70f232}, !- Name
  {1fb66c0f-fe59-434a-bc7d-b48215a001dd}, !- HVAC Component
  {72f65360-4b26-4eea-bd9f-f66ed576d8cf}; !- Port 1

OS:PortList,
  {43cfe612-83a9-4898-8136-60da802abe06}, !- Handle
  {410ae382-e71a-4e1f-b23a-8514c9ea0593}, !- Name
  {1fb66c0f-fe59-434a-bc7d-b48215a001dd}; !- HVAC Component

OS:Sizing:Zone,
  {04a65f32-db97-431f-8884-9362b800e24a}, !- Handle
  {1fb66c0f-fe59-434a-bc7d-b48215a001dd}, !- Zone or ZoneList Name
  SupplyAirTemperature,                   !- Zone Cooling Design Supply Air Temperature Input Method
  14,                                     !- Zone Cooling Design Supply Air Temperature {C}
  11.11,                                  !- Zone Cooling Design Supply Air Temperature Difference {deltaC}
  SupplyAirTemperature,                   !- Zone Heating Design Supply Air Temperature Input Method
  40,                                     !- Zone Heating Design Supply Air Temperature {C}
  11.11,                                  !- Zone Heating Design Supply Air Temperature Difference {deltaC}
  0.0085,                                 !- Zone Cooling Design Supply Air Humidity Ratio {kg-H2O/kg-air}
  0.008,                                  !- Zone Heating Design Supply Air Humidity Ratio {kg-H2O/kg-air}
  ,                                       !- Zone Heating Sizing Factor
  ,                                       !- Zone Cooling Sizing Factor
  DesignDay,                              !- Cooling Design Air Flow Method
  ,                                       !- Cooling Design Air Flow Rate {m3/s}
  ,                                       !- Cooling Minimum Air Flow per Zone Floor Area {m3/s-m2}
  ,                                       !- Cooling Minimum Air Flow {m3/s}
  ,                                       !- Cooling Minimum Air Flow Fraction
  DesignDay,                              !- Heating Design Air Flow Method
  ,                                       !- Heating Design Air Flow Rate {m3/s}
  ,                                       !- Heating Maximum Air Flow per Zone Floor Area {m3/s-m2}
  ,                                       !- Heating Maximum Air Flow {m3/s}
  ,                                       !- Heating Maximum Air Flow Fraction
  ,                                       !- Design Zone Air Distribution Effectiveness in Cooling Mode
  ,                                       !- Design Zone Air Distribution Effectiveness in Heating Mode
  No,                                     !- Account for Dedicated Outdoor Air System
  NeutralSupplyAir,                       !- Dedicated Outdoor Air System Control Strategy
  autosize,                               !- Dedicated Outdoor Air Low Setpoint Temperature for Design {C}
  autosize;                               !- Dedicated Outdoor Air High Setpoint Temperature for Design {C}

OS:ZoneHVAC:EquipmentList,
  {57a1030b-c330-4838-a504-57671a3765a9}, !- Handle
  Zone HVAC Equipment List 1,             !- Name
  {1fb66c0f-fe59-434a-bc7d-b48215a001dd}, !- Thermal Zone
  {0648ac5c-1d7d-4aaa-bc14-1443ebc644ad}, !- Zone Equipment 1
  1,                                      !- Zone Equipment Cooling Sequence 1
  1,                                      !- Zone Equipment Heating or No-Load Sequence 1
  {c8c87275-3229-4967-b280-fb0d19146162}, !- Zone Equipment 2
  2,                                      !- Zone Equipment Cooling Sequence 2
  2;                                      !- Zone Equipment Heating or No-Load Sequence 2

! TrackingID:#[eFXBGN]
OS:Sizing:Zone,
  {58954255-c916-4836-bd85-25d3dca3cf60}, !- Handle
  {1fb66c0f-fe59-434a-bc7d-b48215a001dd}, !- Zone or ZoneList Name
  SupplyAirTemperature,                   !- Zone Cooling Design Supply Air Temperature Input Method
  14,                                     !- Zone Cooling Design Supply Air Temperature {C}
  11.11,                                  !- Zone Cooling Design Supply Air Temperature Difference {deltaC}
  SupplyAirTemperature,                   !- Zone Heating Design Supply Air Temperature Input Method
  40,                                     !- Zone Heating Design Supply Air Temperature {C}
  11.11,                                  !- Zone Heating Design Supply Air Temperature Difference {deltaC}
  0.0085,                                 !- Zone Cooling Design Supply Air Humidity Ratio {kg-H2O/kg-air}
  0.008,                                  !- Zone Heating Design Supply Air Humidity Ratio {kg-H2O/kg-air}
  ,                                       !- Zone Heating Sizing Factor
  ,                                       !- Zone Cooling Sizing Factor
  DesignDay,                              !- Cooling Design Air Flow Method
  ,                                       !- Cooling Design Air Flow Rate {m3/s}
  ,                                       !- Cooling Minimum Air Flow per Zone Floor Area {m3/s-m2}
  ,                                       !- Cooling Minimum Air Flow {m3/s}
  ,                                       !- Cooling Minimum Air Flow Fraction
  DesignDay,                              !- Heating Design Air Flow Method
  ,                                       !- Heating Design Air Flow Rate {m3/s}
  ,                                       !- Heating Maximum Air Flow per Zone Floor Area {m3/s-m2}
  ,                                       !- Heating Maximum Air Flow {m3/s}
  ,                                       !- Heating Maximum Air Flow Fraction
  ,                                       !- Design Zone Air Distribution Effectiveness in Cooling Mode
  ,                                       !- Design Zone Air Distribution Effectiveness in Heating Mode
  No,                                     !- Account for Dedicated Outdoor Air System
  NeutralSupplyAir,                       !- Dedicated Outdoor Air System Control Strategy
  autosize,                               !- Dedicated Outdoor Air Low Setpoint Temperature for Design {C}
  autosize;                               !- Dedicated Outdoor Air High Setpoint Temperature for Design {C}

! TrackingID:#[Atq6Sk]
OS:ZoneHVAC:TerminalUnit:VariableRefrigerantFlow,
  {0648ac5c-1d7d-4aaa-bc14-1443ebc644ad}, !- Handle
  Zone HVAC Terminal Unit Variable Refrigerant Flow 1, !- Name
  {4457bfa0-fd81-4d47-a522-bec979e8e50e}, !- Terminal Unit Availability schedule
  ,                                       !- Terminal Unit Air Inlet Node
  ,                                       !- Terminal Unit Air Outlet Node
  autosize,                               !- Supply Air Flow Rate During Cooling Operation {m3/s}
  autosize,                               !- Supply Air Flow Rate When No Cooling is Needed {m3/s}
  autosize,                               !- Supply Air Flow Rate During Heating Operation {m3/s}
  autosize,                               !- Supply Air Flow Rate When No Heating is Needed {m3/s}
  autosize,                               !- Outdoor Air Flow Rate During Cooling Operation {m3/s}
  autosize,                               !- Outdoor Air Flow Rate During Heating Operation {m3/s}
  autosize,                               !- Outdoor Air Flow Rate When No Cooling or Heating is Needed {m3/s}
  {4457bfa0-fd81-4d47-a522-bec979e8e50e}, !- Supply Air Fan Operating Mode Schedule
  ,                                       !- Supply Air Fan placement
  {afec3718-1022-4c35-85a1-9c9adcb93429}, !- Supply Air Fan
  ,                                       !- Outside Air Mixer
  {4e714f5b-e49d-485b-8400-d39e52866f16}, !- Cooling Coil
  {986a5efb-19e8-4613-a20b-88c8790dcd63}, !- Heating Coil
  30,                                     !- Zone Terminal Unit On Parasitic Electric Energy Use {W}
  20,                                     !- Zone Terminal Unit Off Parasitic Electric Energy Use {W}
  1;                                      !- Rated Total Heating Capacity Sizing Ratio {W/W}

OS:Coil:Cooling:DX:VariableRefrigerantFlow,
  {4e714f5b-e49d-485b-8400-d39e52866f16}, !- Handle
  Zone HVAC Terminal Unit Variable Refrigerant Flow 1 Cooling Coil, !- Name
  {4457bfa0-fd81-4d47-a522-bec979e8e50e}, !- Availability Schedule
  autosize,                               !- Rated Total Cooling Capacity {W}
  autosize,                               !- Rated Sensible Heat Ratio
  autosize,                               !- Rated Air Flow Rate {m3/s}
  {028ce987-c0ac-4dd8-bb29-4d65a68be5db}, !- Cooling Capacity Ratio Modifier Function of Temperature Curve
  {c3a8371d-038a-4e62-89d8-d641c27fc613}; !- Cooling Capacity Modifier Curve Function of Flow Fraction

OS:Curve:Biquadratic,
  {028ce987-c0ac-4dd8-bb29-4d65a68be5db}, !- Handle
  VRFTUCoolCapFT,                         !- Name
  0.0585884077803259,                     !- Coefficient1 Constant
  0.0587396532718384,                     !- Coefficient2 x
  -0.000210274979759697,                  !- Coefficient3 x**2
  0.0109370473889647,                     !- Coefficient4 y
  -0.0001219549,                          !- Coefficient5 y**2
  -0.0005246615,                          !- Coefficient6 x*y
  15,                                     !- Minimum Value of x
  23.89,                                  !- Maximum Value of x
  20,                                     !- Minimum Value of y
  43.33,                                  !- Maximum Value of y
  0.8083,                                 !- Minimum Curve Output
  1.2583;                                 !- Maximum Curve Output

OS:Curve:Quadratic,
  {c3a8371d-038a-4e62-89d8-d641c27fc613}, !- Handle
  VRFACCoolCapFFF,                        !- Name
  0.8,                                    !- Coefficient1 Constant
  0.2,                                    !- Coefficient2 x
  0,                                      !- Coefficient3 x**2
  0.5,                                    !- Minimum Value of x
  1.5;                                    !- Maximum Value of x

OS:Coil:Heating:DX:VariableRefrigerantFlow,
  {986a5efb-19e8-4613-a20b-88c8790dcd63}, !- Handle
  Zone HVAC Terminal Unit Variable Refrigerant Flow 1 Heating Coil, !- Name
  {4457bfa0-fd81-4d47-a522-bec979e8e50e}, !- Availability Schedule
  autosize,                               !- Rated Total Heating Capacity {W}
  autosize,                               !- Rated Air Flow Rate {m3/s}
  ,                                       !- Coil Air Inlet Node
  ,                                       !- Coil Air Outlet Node
  {e9fcd886-4efe-4e38-be55-4e6a52d336df}, !- Heating Capacity Ratio Modifier Function of Temperature Curve
  {2bf265bf-58d2-4cfc-9a80-5680e94151fe}; !- Heating Capacity Modifier Function of Flow Fraction Curve

OS:Curve:Biquadratic,
  {e9fcd886-4efe-4e38-be55-4e6a52d336df}, !- Handle
  Coil Heating DX Variable Refrigerant Flow 1 VRFTUHeatCAPFT, !- Name
  0.375443994956127,                      !- Coefficient1 Constant
  0.0668190645147821,                     !- Coefficient2 x
  -0.00194171026482001,                   !- Coefficient3 x**2
  0.0442618420640187,                     !- Coefficient4 y
  -0.0004009578,                          !- Coefficient5 y**2
  -0.0014819801,                          !- Coefficient6 x*y
  21.11,                                  !- Minimum Value of x
  27.22,                                  !- Maximum Value of x
  -15,                                    !- Minimum Value of y
  18.33,                                  !- Maximum Value of y
  0.6074,                                 !- Minimum Curve Output
  1;                                      !- Maximum Curve Output

OS:Curve:Quadratic,
  {2bf265bf-58d2-4cfc-9a80-5680e94151fe}, !- Handle
  Coil Heating DX Variable Refrigerant Flow 1 VRFACCoolCapFFF, !- Name
  0.8,                                    !- Coefficient1 Constant
  0.2,                                    !- Coefficient2 x
  0,                                      !- Coefficient3 x**2
  0.5,                                    !- Minimum Value of x
  1.5;                                    !- Maximum Value of x

OS:Fan:OnOff,
  {afec3718-1022-4c35-85a1-9c9adcb93429}, !- Handle
  Zone HVAC Terminal Unit Variable Refrigerant Flow 1 Fan, !- Name
  {4457bfa0-fd81-4d47-a522-bec979e8e50e}, !- Availability Schedule Name
  0.6,                                    !- Fan Efficiency
  300,                                    !- Pressure Rise {Pa}
  autosize,                               !- Maximum Flow Rate {m3/s}
  0.8,                                    !- Motor Efficiency
  1,                                      !- Motor In Airstream Fraction
  ,                                       !- Air Inlet Node Name
  ,                                       !- Air Outlet Node Name
  {cc5193bb-d51e-4e4b-a92d-d9efa7cf20d7}, !- Fan Power Ratio Function of Speed Ratio Curve Name
  {29e667d8-cfb4-445a-a689-57de7628918c}, !- Fan Efficiency Ratio Function of Speed Ratio Curve Name
  ;                                       !- End-Use Subcategory

OS:Curve:Exponent,
  {cc5193bb-d51e-4e4b-a92d-d9efa7cf20d7}, !- Handle
  Fan On Off Power Curve,                 !- Name
  1,                                      !- Coefficient1 Constant
  0,                                      !- Coefficient2 Constant
  0,                                      !- Coefficient3 Constant
  0,                                      !- Minimum Value of x
  1,                                      !- Maximum Value of x
  ,                                       !- Minimum Curve Output
  ,                                       !- Maximum Curve Output
  ,                                       !- Input Unit Type for X
  ;                                       !- Output Unit Type

OS:Curve:Cubic,
  {29e667d8-cfb4-445a-a689-57de7628918c}, !- Handle
  Fan On Off Efficiency Curve,            !- Name
  1,                                      !- Coefficient1 Constant
  0,                                      !- Coefficient2 x
  0,                                      !- Coefficient3 x**2
  0,                                      !- Coefficient4 x**3
  0,                                      !- Minimum Value of x
  1;                                      !- Maximum Value of x

! TrackingID:#[XDszrn]
OS:AirTerminal:SingleDuct:Uncontrolled,
  {c8c87275-3229-4967-b280-fb0d19146162}, !- Handle
  Air Terminal Single Duct Uncontrolled 1, !- Name
  {4457bfa0-fd81-4d47-a522-bec979e8e50e}, !- Availability Schedule Name
  {b5731201-555f-476b-8bfc-dec8420d0df5}, !- Inlet Air Node Name
  {1b0bd1ed-2637-41fe-b2d3-3fc6b49cd9b8}, !- Zone Supply Air Node Name
  AutoSize;                               !- Maximum Air Flow Rate {m3/s}

OS:Node,
  {980d06b8-8e32-4a34-b2f4-3fd531f944aa}, !- Handle
  Node 7,                                 !- Name
  {c44ba856-1d70-4fe7-8746-92cddeb6489d}, !- Inlet Port
  {a0d21d01-a311-4a4d-841f-0e0ff3b6d343}; !- Outlet Port

OS:Connection,
  {72f65360-4b26-4eea-bd9f-f66ed576d8cf}, !- Handle
  {f2f15740-e570-4e48-adbc-c8a28b666d5e}, !- Name
  {e88464d5-a732-4074-8a67-8395e236b959}, !- Source Object
  3,                                      !- Outlet Port
  {ed4cc891-8cf4-4bb0-a4eb-2e45ece53162}, !- Target Object
  3;                                      !- Inlet Port

OS:Connection,
  {c44ba856-1d70-4fe7-8746-92cddeb6489d}, !- Handle
  {61f6819a-b7e6-4a90-9cb7-d2420d26ddce}, !- Name
  {1fb66c0f-fe59-434a-bc7d-b48215a001dd}, !- Source Object
  12,                                     !- Outlet Port
  {980d06b8-8e32-4a34-b2f4-3fd531f944aa}, !- Target Object
  2;                                      !- Inlet Port

OS:Connection,
  {a0d21d01-a311-4a4d-841f-0e0ff3b6d343}, !- Handle
  {7a9002c6-124c-49b2-a63c-927cfc4e844f}, !- Name
  {980d06b8-8e32-4a34-b2f4-3fd531f944aa}, !- Source Object
  3,                                      !- Outlet Port
  {781d043d-6730-444a-b761-eb597403770f}, !- Target Object
  3;                                      !- Inlet Port

OS:Connection,
  {b5731201-555f-476b-8bfc-dec8420d0df5}, !- Handle
  {a67ba6a2-0108-4b70-bc0e-19277c898ecf}, !- Name
  {483dec4e-411f-40c7-8b00-6d9f1f6022cb}, !- Source Object
  3,                                      !- Outlet Port
  {c8c87275-3229-4967-b280-fb0d19146162}, !- Target Object
  3;                                      !- Inlet Port

OS:Connection,
  {1b0bd1ed-2637-41fe-b2d3-3fc6b49cd9b8}, !- Handle
  {136b3374-e7a4-4709-bb64-fa969b343711}, !- Name
  {c8c87275-3229-4967-b280-fb0d19146162}, !- Source Object
  4,                                      !- Outlet Port
  {e88464d5-a732-4074-8a67-8395e236b959}, !- Target Object
  2;                                      !- Inlet Port

! TrackingID:#[sVF1C4]