
OS:Version,
  {c3442023-820a-4fcb-89f0-86ba31844ad8}, !- Handle
  2.4.0;                                  !- Version Identifier

! TrackingID:#[II9oyQ]
OS:AirLoopHVAC,
  {02a93093-d4fc-40f1-9155-683c9fa2c0af}, !- Handle
  Air Loop HVAC 1,                        !- Name
  ,                                       !- Controller List Name
  {77bbdb1f-481e-478d-946f-3647193e9629}, !- Availability Schedule
  {2d81acfd-3095-46a2-923d-5e72d5ae040f}, !- Availability Manager List Name
  AutoSize,                               !- Design Supply Air Flow Rate {m3/s}
  ,                                       !- Branch List Name
  ,                                       !- Connector List Name
  {fc5cfc94-f2cc-4a0f-894e-a6e1510493dc}, !- Supply Side Inlet Node Name
  {d79444ab-e6a4-40f0-afe7-7b0a404c26f6}, !- Demand Side Outlet Node Name
  {a93f40c8-9160-40a5-8af4-7825a0a95e16}, !- Demand Side Inlet Node A
  {d2f5aef2-0514-42cf-bc28-6584fbcda70f}, !- Supply Side Outlet Node A
  ,                                       !- Demand Side Inlet Node B
  ,                                       !- Supply Side Outlet Node B
  ,                                       !- Return Air Bypass Flow Temperature Setpoint Schedule Name
  {401963e4-09aa-4407-be58-2dd5c32f5d59}, !- Demand Mixer Name
  {c1d55f26-99da-4aed-8db7-7fbf48095096}, !- Demand Splitter A Name
  ,                                       !- Demand Splitter B Name
  ;                                       !- Supply Splitter Name

OS:Node,
  {d427c5ff-7e90-49ee-a7e2-5b8c8d016b9c}, !- Handle
  Node 1,                                 !- Name
  {fc5cfc94-f2cc-4a0f-894e-a6e1510493dc}, !- Inlet Port
  {13571fc6-b32a-43e7-9963-dc8d3c86820b}; !- Outlet Port

OS:Node,
  {825b4e17-8d5a-4b12-967a-0c9898229650}, !- Handle
  Node 2,                                 !- Name
  {ec50cda8-4c58-4477-9efc-12c5498c00ce}, !- Inlet Port
  {d2f5aef2-0514-42cf-bc28-6584fbcda70f}; !- Outlet Port

OS:Connection,
  {fc5cfc94-f2cc-4a0f-894e-a6e1510493dc}, !- Handle
  {dd5f34aa-d51d-4faa-8480-904a7ef618e7}, !- Name
  {02a93093-d4fc-40f1-9155-683c9fa2c0af}, !- Source Object
  8,                                      !- Outlet Port
  {d427c5ff-7e90-49ee-a7e2-5b8c8d016b9c}, !- Target Object
  2;                                      !- Inlet Port

OS:Connection,
  {d2f5aef2-0514-42cf-bc28-6584fbcda70f}, !- Handle
  {0e9d7bb9-d188-4485-80b3-fcc7138638e3}, !- Name
  {825b4e17-8d5a-4b12-967a-0c9898229650}, !- Source Object
  3,                                      !- Outlet Port
  {02a93093-d4fc-40f1-9155-683c9fa2c0af}, !- Target Object
  11;                                     !- Inlet Port

OS:Node,
  {8cae2cd2-397c-4236-b9ef-cf3494f6ec93}, !- Handle
  Node 3,                                 !- Name
  {a93f40c8-9160-40a5-8af4-7825a0a95e16}, !- Inlet Port
  {f8dfea3b-e2ed-49a9-84fd-1d090210fcac}; !- Outlet Port

OS:Node,
  {b0dd062a-39a6-495b-9005-efbf0417a0ef}, !- Handle
  Node 4,                                 !- Name
  {91e75c32-2306-461d-b4dc-61eff19d083c}, !- Inlet Port
  {d79444ab-e6a4-40f0-afe7-7b0a404c26f6}; !- Outlet Port

OS:Node,
  {22dfcb64-349f-45ba-9e21-f67feed0d52c}, !- Handle
  Node 5,                                 !- Name
  {c9cdd421-3802-4a2d-a9ae-b739f5336b0f}, !- Inlet Port
  {b80c0d85-de15-4b4d-b7d3-4ed00b33b10d}; !- Outlet Port

OS:Connection,
  {a93f40c8-9160-40a5-8af4-7825a0a95e16}, !- Handle
  {57f0f65c-c073-4e70-bdd3-278e0d698bb4}, !- Name
  {02a93093-d4fc-40f1-9155-683c9fa2c0af}, !- Source Object
  10,                                     !- Outlet Port
  {8cae2cd2-397c-4236-b9ef-cf3494f6ec93}, !- Target Object
  2;                                      !- Inlet Port

OS:Connection,
  {d79444ab-e6a4-40f0-afe7-7b0a404c26f6}, !- Handle
  {a9be029a-6578-4de4-899f-30f8dc719e0e}, !- Name
  {b0dd062a-39a6-495b-9005-efbf0417a0ef}, !- Source Object
  3,                                      !- Outlet Port
  {02a93093-d4fc-40f1-9155-683c9fa2c0af}, !- Target Object
  9;                                      !- Inlet Port

OS:AirLoopHVAC:ZoneSplitter,
  {c1d55f26-99da-4aed-8db7-7fbf48095096}, !- Handle
  Air Loop HVAC Zone Splitter 1,          !- Name
  {f8dfea3b-e2ed-49a9-84fd-1d090210fcac}, !- Inlet Node Name
  {40a5dcdb-fed5-4da6-a28d-788a5509b600}, !- Outlet Node Name 1
  {97844859-a09a-4a8b-8461-e33161dc84b5}; !- Outlet Node Name 2

OS:AirLoopHVAC:ZoneMixer,
  {401963e4-09aa-4407-be58-2dd5c32f5d59}, !- Handle
  Air Loop HVAC Zone Mixer 1,             !- Name
  {91e75c32-2306-461d-b4dc-61eff19d083c}, !- Outlet Node Name
  {f34b3d7c-9f5a-4958-b98f-c5368b563d5d}, !- Inlet Node Name 1
  {55f96735-5b07-4706-9e5f-0efdf6f7341d}; !- Inlet Node Name 2

OS:Connection,
  {f8dfea3b-e2ed-49a9-84fd-1d090210fcac}, !- Handle
  {e8a514b8-22e8-4a3e-b7ff-d30e90f20e09}, !- Name
  {8cae2cd2-397c-4236-b9ef-cf3494f6ec93}, !- Source Object
  3,                                      !- Outlet Port
  {c1d55f26-99da-4aed-8db7-7fbf48095096}, !- Target Object
  2;                                      !- Inlet Port

OS:Connection,
  {91e75c32-2306-461d-b4dc-61eff19d083c}, !- Handle
  {a25e7be5-9b40-48e4-aa4d-805b5944d3de}, !- Name
  {401963e4-09aa-4407-be58-2dd5c32f5d59}, !- Source Object
  2,                                      !- Outlet Port
  {b0dd062a-39a6-495b-9005-efbf0417a0ef}, !- Target Object
  2;                                      !- Inlet Port

OS:Sizing:System,
  {9b4893c0-1074-40f5-8181-6d5637688e19}, !- Handle
  {02a93093-d4fc-40f1-9155-683c9fa2c0af}, !- AirLoop Name
  Sensible,                               !- Type of Load to Size On
  Autosize,                               !- Design Outdoor Air Flow Rate {m3/s}
  0.3,                                    !- Minimum System Air Flow Ratio
  7,                                      !- Preheat Design Temperature {C}
  0.008,                                  !- Preheat Design Humidity Ratio {kg-H2O/kg-Air}
  12.8,                                   !- Precool Design Temperature {C}
  0.008,                                  !- Precool Design Humidity Ratio {kg-H2O/kg-Air}
  12.8,                                   !- Central Cooling Design Supply Air Temperature {C}
  16.7,                                   !- Central Heating Design Supply Air Temperature {C}
  NonCoincident,                          !- Sizing Option
  Yes,                                    !- 100% Outdoor Air in Cooling
  Yes,                                    !- 100% Outdoor Air in Heating
  0.0085,                                 !- Central Cooling Design Supply Air Humidity Ratio {kg-H2O/kg-Air}
  0.008,                                  !- Central Heating Design Supply Air Humidity Ratio {kg-H2O/kg-Air}
  DesignDay,                              !- Cooling Design Air Flow Method
  0,                                      !- Cooling Design Air Flow Rate {m3/s}
  DesignDay,                              !- Heating Design Air Flow Method
  0,                                      !- Heating Design Air Flow Rate {m3/s}
  ZoneSum,                                !- System Outdoor Air Method
  1,                                      !- Zone Maximum Outdoor Air Fraction {dimensionless}
  0.0099676501,                           !- Cooling Supply Air Flow Rate Per Floor Area {m3/s-m2}
  1,                                      !- Cooling Fraction of Autosized Cooling Supply Air Flow Rate
  3.9475456e-005,                         !- Cooling Supply Air Flow Rate Per Unit Cooling Capacity {m3/s-W}
  0.0099676501,                           !- Heating Supply Air Flow Rate Per Floor Area {m3/s-m2}
  1,                                      !- Heating Fraction of Autosized Heating Supply Air Flow Rate
  1,                                      !- Heating Fraction of Autosized Cooling Supply Air Flow Rate
  3.1588213e-005,                         !- Heating Supply Air Flow Rate Per Unit Heating Capacity {m3/s-W}
  CoolingDesignCapacity,                  !- Cooling Design Capacity Method
  autosize,                               !- Cooling Design Capacity {W}
  234.7,                                  !- Cooling Design Capacity Per Floor Area {W/m2}
  1,                                      !- Fraction of Autosized Cooling Design Capacity
  HeatingDesignCapacity,                  !- Heating Design Capacity Method
  autosize,                               !- Heating Design Capacity {W}
  157,                                    !- Heating Design Capacity Per Floor Area {W/m2}
  1,                                      !- Fraction of Autosized Heating Design Capacity
  OnOff;                                  !- Central Cooling Capacity Control Method

OS:Schedule:Constant,
  {77bbdb1f-481e-478d-946f-3647193e9629}, !- Handle
  Always On Discrete,                     !- Name
  {f5941c17-ac64-43af-80e7-16e6fe8ba8f2}, !- Schedule Type Limits Name
  1;                                      !- Value

OS:ScheduleTypeLimits,
  {f5941c17-ac64-43af-80e7-16e6fe8ba8f2}, !- Handle
  OnOff,                                  !- Name
  0,                                      !- Lower Limit Value
  1,                                      !- Upper Limit Value
  Discrete,                               !- Numeric Type
  Availability;                           !- Unit Type

OS:AvailabilityManagerAssignmentList,
  {2d81acfd-3095-46a2-923d-5e72d5ae040f}, !- Handle
  Air Loop HVAC 1 AvailabilityManagerAssignmentList; !- Name

! TrackingID:#[IBR0bj]
OS:Controller:OutdoorAir,
  {4b812d5a-ddb3-4a8f-b26d-7d8f22c4b8d3}, !- Handle
  Controller Outdoor Air 1,               !- Name
  ,                                       !- Relief Air Outlet Node Name
  ,                                       !- Return Air Node Name
  ,                                       !- Mixed Air Node Name
  ,                                       !- Actuator Node Name
  0,                                      !- Minimum Outdoor Air Flow Rate {m3/s}
  Autosize,                               !- Maximum Outdoor Air Flow Rate {m3/s}
  NoEconomizer,                           !- Economizer Control Type
  ModulateFlow,                           !- Economizer Control Action Type
  28,                                     !- Economizer Maximum Limit Dry-Bulb Temperature {C}
  64000,                                  !- Economizer Maximum Limit Enthalpy {J/kg}
  ,                                       !- Economizer Maximum Limit Dewpoint Temperature {C}
  ,                                       !- Electronic Enthalpy Limit Curve Name
  -100,                                   !- Economizer Minimum Limit Dry-Bulb Temperature {C}
  NoLockout,                              !- Lockout Type
  FixedMinimum,                           !- Minimum Limit Type
  ,                                       !- Minimum Outdoor Air Schedule Name
  ,                                       !- Minimum Fraction of Outdoor Air Schedule Name
  ,                                       !- Maximum Fraction of Outdoor Air Schedule Name
  {d271dba4-5fd7-407b-b400-601cb3fad562}, !- Controller Mechanical Ventilation
  ,                                       !- Time of Day Economizer Control Schedule Name
  No,                                     !- High Humidity Control
  ,                                       !- Humidistat Control Zone Name
  ,                                       !- High Humidity Outdoor Air Flow Ratio
  ,                                       !- Control High Indoor Humidity Based on Outdoor Humidity Ratio
  BypassWhenWithinEconomizerLimits;       !- Heat Recovery Bypass Control Type

OS:Controller:MechanicalVentilation,
  {d271dba4-5fd7-407b-b400-601cb3fad562}, !- Handle
  Controller Mechanical Ventilation 1,    !- Name
  {77bbdb1f-481e-478d-946f-3647193e9629}, !- Availability Schedule
  ,                                       !- Demand Controlled Ventilation
  ZoneSum;                                !- System Outdoor Air Method

! TrackingID:#[SQsl3X]
OS:AirLoopHVAC:OutdoorAirSystem,
  {9862b34b-67c8-413e-80c8-6fa3775fef10}, !- Handle
  Air Loop HVAC Outdoor Air System 1,     !- Name
  {4b812d5a-ddb3-4a8f-b26d-7d8f22c4b8d3}, !- Controller Name
  ,                                       !- Outdoor Air Equipment List Name
  ,                                       !- Availability Manager List Name
  {09e4d06b-5e70-4dd2-86ab-0a878e00da40}, !- Mixed Air Node Name
  {447d739b-e6f0-4710-a5a9-ea334dc3c8e8}, !- Outdoor Air Stream Node Name
  {ada483da-d5bd-4a03-bb47-22155e991713}, !- Relief Air Stream Node Name
  {13571fc6-b32a-43e7-9963-dc8d3c86820b}; !- Return Air Stream Node Name

OS:Node,
  {32e7b58c-0fb9-420c-915e-dbca04abcf9d}, !- Handle
  Node 6,                                 !- Name
  ,                                       !- Inlet Port
  {447d739b-e6f0-4710-a5a9-ea334dc3c8e8}; !- Outlet Port

OS:Connection,
  {447d739b-e6f0-4710-a5a9-ea334dc3c8e8}, !- Handle
  {0869eded-59ed-4094-a247-a372464eca1c}, !- Name
  {32e7b58c-0fb9-420c-915e-dbca04abcf9d}, !- Source Object
  3,                                      !- Outlet Port
  {9862b34b-67c8-413e-80c8-6fa3775fef10}, !- Target Object
  6;                                      !- Inlet Port

OS:Node,
  {d186622b-f076-4959-a148-2b913bb25599}, !- Handle
  Node 7,                                 !- Name
  {ada483da-d5bd-4a03-bb47-22155e991713}, !- Inlet Port
  ;                                       !- Outlet Port

OS:Connection,
  {ada483da-d5bd-4a03-bb47-22155e991713}, !- Handle
  {b447d24c-6b20-4a81-9ba6-d764a68984a9}, !- Name
  {9862b34b-67c8-413e-80c8-6fa3775fef10}, !- Source Object
  7,                                      !- Outlet Port
  {d186622b-f076-4959-a148-2b913bb25599}, !- Target Object
  2;                                      !- Inlet Port

OS:Connection,
  {13571fc6-b32a-43e7-9963-dc8d3c86820b}, !- Handle
  {6ab142a4-74ba-4caa-a560-33e667708552}, !- Name
  {d427c5ff-7e90-49ee-a7e2-5b8c8d016b9c}, !- Source Object
  3,                                      !- Outlet Port
  {9862b34b-67c8-413e-80c8-6fa3775fef10}, !- Target Object
  8;                                      !- Inlet Port

! TrackingID:#[hVurX4]
OS:Coil:Cooling:Water,
  {1e381ffa-d675-40c6-b725-5cf60352f04a}, !- Handle
  Coil Cooling Water 1,                   !- Name
  {77bbdb1f-481e-478d-946f-3647193e9629}, !- Availability Schedule Name
  ,                                       !- Design Water Flow Rate {m3/s}
  ,                                       !- Design Air Flow Rate {m3/s}
  ,                                       !- Design Inlet Water Temperature {C}
  ,                                       !- Design Inlet Air Temperature {C}
  ,                                       !- Design Outlet Air Temperature {C}
  ,                                       !- Design Inlet Air Humidity Ratio {kg-H2O/kg-air}
  ,                                       !- Design Outlet Air Humidity Ratio {kg-H2O/kg-air}
  ,                                       !- Water Inlet Node Name
  ,                                       !- Water Outlet Node Name
  {ee687846-8b5f-4bd0-be9e-77f18c5b6a0d}, !- Air Inlet Node Name
  {fce97b47-cf0b-479e-b12f-21214b333dd7}, !- Air Outlet Node Name
  ,                                       !- Type of Analysis
  ;                                       !- Heat Exchanger Configuration

OS:Node,
  {ef7aa823-d5ce-4e14-b453-ecab354ec98a}, !- Handle
  Node 8,                                 !- Name
  {09e4d06b-5e70-4dd2-86ab-0a878e00da40}, !- Inlet Port
  {ee687846-8b5f-4bd0-be9e-77f18c5b6a0d}; !- Outlet Port

OS:Connection,
  {09e4d06b-5e70-4dd2-86ab-0a878e00da40}, !- Handle
  {fc6e1712-4798-4aad-89cf-af9ec9583fc8}, !- Name
  {9862b34b-67c8-413e-80c8-6fa3775fef10}, !- Source Object
  5,                                      !- Outlet Port
  {ef7aa823-d5ce-4e14-b453-ecab354ec98a}, !- Target Object
  2;                                      !- Inlet Port

OS:Connection,
  {ee687846-8b5f-4bd0-be9e-77f18c5b6a0d}, !- Handle
  {277b8d4b-cd27-4d11-9eff-00b3f2d91e43}, !- Name
  {ef7aa823-d5ce-4e14-b453-ecab354ec98a}, !- Source Object
  3,                                      !- Outlet Port
  {1e381ffa-d675-40c6-b725-5cf60352f04a}, !- Target Object
  12;                                     !- Inlet Port

! TrackingID:#[6RA9AQ]
OS:Coil:Heating:Water,
  {6b15482c-83cd-48da-91a9-d654d8f28755}, !- Handle
  Coil Heating Water 1,                   !- Name
  {77bbdb1f-481e-478d-946f-3647193e9629}, !- Availability Schedule Name
  ,                                       !- U-Factor Times Area Value {W/K}
  ,                                       !- Maximum Water Flow Rate {m3/s}
  {97224fca-481c-41ff-9155-2b042003c1a9}, !- Water Inlet Node Name
  {837547e5-32ea-4ff5-be5c-f220219b9fe8}, !- Water Outlet Node Name
  {dbd92fc8-91a4-4720-8bf3-c42b7d7d539a}, !- Air Inlet Node Name
  {f53e2c53-d1a7-4122-b8a7-7e3ca6b1e3d5}, !- Air Outlet Node Name
  ,                                       !- Performance Input Method
  ,                                       !- Rated Capacity {W}
  ,                                       !- Rated Inlet Water Temperature {C}
  ,                                       !- Rated Inlet Air Temperature {C}
  ,                                       !- Rated Outlet Water Temperature {C}
  ,                                       !- Rated Outlet Air Temperature {C}
  ;                                       !- Rated Ratio for Air and Water Convection

OS:Node,
  {7466c7e4-969f-4299-b3d1-0973b2cebef1}, !- Handle
  Node 9,                                 !- Name
  {fce97b47-cf0b-479e-b12f-21214b333dd7}, !- Inlet Port
  {dbd92fc8-91a4-4720-8bf3-c42b7d7d539a}; !- Outlet Port

OS:Connection,
  {fce97b47-cf0b-479e-b12f-21214b333dd7}, !- Handle
  {53376077-7297-4652-ba0d-008d19243ff8}, !- Name
  {1e381ffa-d675-40c6-b725-5cf60352f04a}, !- Source Object
  13,                                     !- Outlet Port
  {7466c7e4-969f-4299-b3d1-0973b2cebef1}, !- Target Object
  2;                                      !- Inlet Port

OS:Connection,
  {dbd92fc8-91a4-4720-8bf3-c42b7d7d539a}, !- Handle
  {6c88e706-4b08-4a60-b08f-ed5dba7f8eec}, !- Name
  {7466c7e4-969f-4299-b3d1-0973b2cebef1}, !- Source Object
  3,                                      !- Outlet Port
  {6b15482c-83cd-48da-91a9-d654d8f28755}, !- Target Object
  7;                                      !- Inlet Port

! TrackingID:#[EdSCQG]
OS:Fan:VariableVolume,
  {4a740fbf-2c4c-4b9b-9857-e62c298c19b7}, !- Handle
  Fan Variable Volume 1,                  !- Name
  {77bbdb1f-481e-478d-946f-3647193e9629}, !- Availability Schedule Name
  0.6045,                                 !- Fan Efficiency
  1017.592,                               !- Pressure Rise {Pa}
  Autosize,                               !- Maximum Flow Rate {m3/s}
  FixedFlowRate,                          !- Fan Power Minimum Flow Rate Input Method
  0,                                      !- Fan Power Minimum Flow Fraction
  0,                                      !- Fan Power Minimum Air Flow Rate {m3/s}
  0.93,                                   !- Motor Efficiency
  1,                                      !- Motor In Airstream Fraction
  0.040759894,                            !- Fan Power Coefficient 1
  0.08804497,                             !- Fan Power Coefficient 2
  -0.07292612,                            !- Fan Power Coefficient 3
  0.943739823,                            !- Fan Power Coefficient 4
  0,                                      !- Fan Power Coefficient 5
  {0d458997-f648-4be2-8183-395c7dbb1201}, !- Air Inlet Node Name
  {ec50cda8-4c58-4477-9efc-12c5498c00ce}, !- Air Outlet Node Name
  ;                                       !- End-Use Subcategory

OS:Node,
  {92c984d9-7e4b-4d80-a89b-2212198d8b76}, !- Handle
  Node 10,                                !- Name
  {f53e2c53-d1a7-4122-b8a7-7e3ca6b1e3d5}, !- Inlet Port
  {0d458997-f648-4be2-8183-395c7dbb1201}; !- Outlet Port

OS:Connection,
  {f53e2c53-d1a7-4122-b8a7-7e3ca6b1e3d5}, !- Handle
  {5229e8bb-d6d5-4d04-bc8e-084777cc4b40}, !- Name
  {6b15482c-83cd-48da-91a9-d654d8f28755}, !- Source Object
  8,                                      !- Outlet Port
  {92c984d9-7e4b-4d80-a89b-2212198d8b76}, !- Target Object
  2;                                      !- Inlet Port

OS:Connection,
  {0d458997-f648-4be2-8183-395c7dbb1201}, !- Handle
  {8d51427f-e44e-4d89-a0b0-695038400c2d}, !- Name
  {92c984d9-7e4b-4d80-a89b-2212198d8b76}, !- Source Object
  3,                                      !- Outlet Port
  {4a740fbf-2c4c-4b9b-9857-e62c298c19b7}, !- Target Object
  16;                                     !- Inlet Port

OS:Connection,
  {ec50cda8-4c58-4477-9efc-12c5498c00ce}, !- Handle
  {1da0ba2d-fb63-4a23-919a-bdd0517a6b56}, !- Name
  {4a740fbf-2c4c-4b9b-9857-e62c298c19b7}, !- Source Object
  17,                                     !- Outlet Port
  {825b4e17-8d5a-4b12-967a-0c9898229650}, !- Target Object
  2;                                      !- Inlet Port

! TrackingID:#[urJxDT]
OS:ThermalZone,
  {0bc0f2a4-e97f-4a16-aa1f-ebc55f24161e}, !- Handle
  zone_0,                                 !- Name
  ,                                       !- Multiplier
  ,                                       !- Ceiling Height {m}
  ,                                       !- Volume {m3}
  ,                                       !- Floor Area {m2}
  ,                                       !- Zone Inside Convection Algorithm
  ,                                       !- Zone Outside Convection Algorithm
  ,                                       !- Zone Conditioning Equipment List Name
  {11e75d4d-9a9c-4e45-901c-217e637f1d5f}, !- Zone Air Inlet Port List
  {89d20807-a7e8-4e09-bff8-a33ce474f48b}, !- Zone Air Exhaust Port List
  {07201678-a038-4bdc-9523-60837f3b3045}, !- Zone Air Node Name
  {5f35a59b-a7d5-4a6f-a07d-5b5a13a6230e}, !- Zone Return Air Node Name
  ,                                       !- Primary Daylighting Control Name
  ,                                       !- Fraction of Zone Controlled by Primary Daylighting Control
  ,                                       !- Secondary Daylighting Control Name
  ,                                       !- Fraction of Zone Controlled by Secondary Daylighting Control
  ,                                       !- Illuminance Map Name
  ,                                       !- Group Rendering Name
  ,                                       !- Thermostat Name
  No;                                     !- Use Ideal Air Loads

OS:Node,
  {4d86e0af-dac3-4c53-9d36-6afde1ee9ff4}, !- Handle
  Node 11,                                !- Name
  {07201678-a038-4bdc-9523-60837f3b3045}, !- Inlet Port
  ;                                       !- Outlet Port

OS:Connection,
  {07201678-a038-4bdc-9523-60837f3b3045}, !- Handle
  {d890510f-d881-4a20-a984-655b8cbca7c9}, !- Name
  {0bc0f2a4-e97f-4a16-aa1f-ebc55f24161e}, !- Source Object
  11,                                     !- Outlet Port
  {4d86e0af-dac3-4c53-9d36-6afde1ee9ff4}, !- Target Object
  2;                                      !- Inlet Port

OS:PortList,
  {11e75d4d-9a9c-4e45-901c-217e637f1d5f}, !- Handle
  {ce26b7d1-620a-4592-b437-feaddd310226}, !- Name
  {0bc0f2a4-e97f-4a16-aa1f-ebc55f24161e}, !- HVAC Component
  {b80c0d85-de15-4b4d-b7d3-4ed00b33b10d}; !- Port 1

OS:PortList,
  {89d20807-a7e8-4e09-bff8-a33ce474f48b}, !- Handle
  {0588c1c2-550b-42d7-9805-9827fc0cf223}, !- Name
  {0bc0f2a4-e97f-4a16-aa1f-ebc55f24161e}; !- HVAC Component

OS:Sizing:Zone,
  {4ff9b2d9-397d-4ef1-8b0c-a79e93a7619c}, !- Handle
  {0bc0f2a4-e97f-4a16-aa1f-ebc55f24161e}, !- Zone or ZoneList Name
  SupplyAirTemperature,                   !- Zone Cooling Design Supply Air Temperature Input Method
  14,                                     !- Zone Cooling Design Supply Air Temperature {C}
  11.11,                                  !- Zone Cooling Design Supply Air Temperature Difference {deltaC}
  SupplyAirTemperature,                   !- Zone Heating Design Supply Air Temperature Input Method
  40,                                     !- Zone Heating Design Supply Air Temperature {C}
  11.11,                                  !- Zone Heating Design Supply Air Temperature Difference {deltaC}
  0.0085,                                 !- Zone Cooling Design Supply Air Humidity Ratio {kg-H2O/kg-air}
  0.008,                                  !- Zone Heating Design Supply Air Humidity Ratio {kg-H2O/kg-air}
  ,                                       !- Zone Heating Sizing Factor
  ,                                       !- Zone Cooling Sizing Factor
  DesignDay,                              !- Cooling Design Air Flow Method
  ,                                       !- Cooling Design Air Flow Rate {m3/s}
  ,                                       !- Cooling Minimum Air Flow per Zone Floor Area {m3/s-m2}
  ,                                       !- Cooling Minimum Air Flow {m3/s}
  ,                                       !- Cooling Minimum Air Flow Fraction
  DesignDay,                              !- Heating Design Air Flow Method
  ,                                       !- Heating Design Air Flow Rate {m3/s}
  ,                                       !- Heating Maximum Air Flow per Zone Floor Area {m3/s-m2}
  ,                                       !- Heating Maximum Air Flow {m3/s}
  ,                                       !- Heating Maximum Air Flow Fraction
  ,                                       !- Design Zone Air Distribution Effectiveness in Cooling Mode
  ,                                       !- Design Zone Air Distribution Effectiveness in Heating Mode
  No,                                     !- Account for Dedicated Outdoor Air System
  NeutralSupplyAir,                       !- Dedicated Outdoor Air System Control Strategy
  autosize,                               !- Dedicated Outdoor Air Low Setpoint Temperature for Design {C}
  autosize;                               !- Dedicated Outdoor Air High Setpoint Temperature for Design {C}

OS:ZoneHVAC:EquipmentList,
  {851bf2cd-97a9-49cf-8529-6bb8b44d9a5d}, !- Handle
  Zone HVAC Equipment List 1,             !- Name
  {0bc0f2a4-e97f-4a16-aa1f-ebc55f24161e}, !- Thermal Zone
  {7541b45c-c592-4edc-bc9e-2e2216f7133c}, !- Zone Equipment 1
  1,                                      !- Zone Equipment Cooling Sequence 1
  1;                                      !- Zone Equipment Heating or No-Load Sequence 1

! TrackingID:#[fU5x4G]
OS:Sizing:Zone,
  {fa32fb47-291b-4f4c-9844-0e44dbcb0815}, !- Handle
  {0bc0f2a4-e97f-4a16-aa1f-ebc55f24161e}, !- Zone or ZoneList Name
  SupplyAirTemperature,                   !- Zone Cooling Design Supply Air Temperature Input Method
  14,                                     !- Zone Cooling Design Supply Air Temperature {C}
  11.11,                                  !- Zone Cooling Design Supply Air Temperature Difference {deltaC}
  SupplyAirTemperature,                   !- Zone Heating Design Supply Air Temperature Input Method
  40,                                     !- Zone Heating Design Supply Air Temperature {C}
  11.11,                                  !- Zone Heating Design Supply Air Temperature Difference {deltaC}
  0.0085,                                 !- Zone Cooling Design Supply Air Humidity Ratio {kg-H2O/kg-air}
  0.008,                                  !- Zone Heating Design Supply Air Humidity Ratio {kg-H2O/kg-air}
  ,                                       !- Zone Heating Sizing Factor
  ,                                       !- Zone Cooling Sizing Factor
  DesignDay,                              !- Cooling Design Air Flow Method
  ,                                       !- Cooling Design Air Flow Rate {m3/s}
  ,                                       !- Cooling Minimum Air Flow per Zone Floor Area {m3/s-m2}
  ,                                       !- Cooling Minimum Air Flow {m3/s}
  ,                                       !- Cooling Minimum Air Flow Fraction
  DesignDay,                              !- Heating Design Air Flow Method
  ,                                       !- Heating Design Air Flow Rate {m3/s}
  ,                                       !- Heating Maximum Air Flow per Zone Floor Area {m3/s-m2}
  ,                                       !- Heating Maximum Air Flow {m3/s}
  ,                                       !- Heating Maximum Air Flow Fraction
  ,                                       !- Design Zone Air Distribution Effectiveness in Cooling Mode
  ,                                       !- Design Zone Air Distribution Effectiveness in Heating Mode
  No,                                     !- Account for Dedicated Outdoor Air System
  NeutralSupplyAir,                       !- Dedicated Outdoor Air System Control Strategy
  autosize,                               !- Dedicated Outdoor Air Low Setpoint Temperature for Design {C}
  autosize;                               !- Dedicated Outdoor Air High Setpoint Temperature for Design {C}

OS:Coil:Heating:Water,
  {0de516b2-fe34-465a-9644-a2ee376b4d1f}, !- Handle
  Coil Heating Water 2,                   !- Name
  {77bbdb1f-481e-478d-946f-3647193e9629}, !- Availability Schedule Name
  ,                                       !- U-Factor Times Area Value {W/K}
  ,                                       !- Maximum Water Flow Rate {m3/s}
  ,                                       !- Water Inlet Node Name
  ,                                       !- Water Outlet Node Name
  ,                                       !- Air Inlet Node Name
  ,                                       !- Air Outlet Node Name
  ,                                       !- Performance Input Method
  ,                                       !- Rated Capacity {W}
  ,                                       !- Rated Inlet Water Temperature {C}
  ,                                       !- Rated Inlet Air Temperature {C}
  ,                                       !- Rated Outlet Water Temperature {C}
  ,                                       !- Rated Outlet Air Temperature {C}
  ;                                       !- Rated Ratio for Air and Water Convection

! TrackingID:#[ZKrsZg]