
OS:Version,
  {d8808b79-b8a3-4927-9ef9-d1da118476c6}, !- Handle
  2.4.0;                                  !- Version Identifier

OS:AirLoopHVAC,
  {031d0c38-d623-444c-bbc2-e5435dda6667}, !- Handle
  Air Loop HVAC 1,                        !- Name
  ,                                       !- Controller List Name
  {b2cf0689-96fa-4046-b7a7-84f606550dc1}, !- Availability Schedule
  {1944c861-7327-4c3a-ba83-7691343e01bc}, !- Availability Manager List Name
  AutoSize,                               !- Design Supply Air Flow Rate {m3/s}
  ,                                       !- Branch List Name
  ,                                       !- Connector List Name
  {ea537ffd-1c80-4226-a0e2-5c0ba3f74017}, !- Supply Side Inlet Node Name
  {3b5eaa53-2217-4e2a-9ae1-c3642c6981c3}, !- Demand Side Outlet Node Name
  {f507b9c1-4a69-4d4b-bfd4-4264b9dae61c}, !- Demand Side Inlet Node A
  {1a21762f-0ff1-47df-9ff6-5643c646532d}, !- Supply Side Outlet Node A
  ,                                       !- Demand Side Inlet Node B
  ,                                       !- Supply Side Outlet Node B
  ,                                       !- Return Air Bypass Flow Temperature Setpoint Schedule Name
  {c5f047fa-e49a-4c40-ad77-725b90bc41f9}, !- Demand Mixer Name
  {a8aceddd-b251-4ead-95d2-96ff00ce36ce}, !- Demand Splitter A Name
  ,                                       !- Demand Splitter B Name
  ;                                       !- Supply Splitter Name

OS:Node,
  {006f15ed-07de-4a63-9200-0ef039f471b2}, !- Handle
  Node 1,                                 !- Name
  {ea537ffd-1c80-4226-a0e2-5c0ba3f74017}, !- Inlet Port
  {0116d8ae-9cee-426a-a93e-c7243c6400cb}; !- Outlet Port

OS:Node,
  {6c574bb0-4047-456a-9b25-5258425d7935}, !- Handle
  Node 2,                                 !- Name
  {0116d8ae-9cee-426a-a93e-c7243c6400cb}, !- Inlet Port
  {1a21762f-0ff1-47df-9ff6-5643c646532d}; !- Outlet Port

OS:Connection,
  {ea537ffd-1c80-4226-a0e2-5c0ba3f74017}, !- Handle
  {69b29d57-0bb4-4389-9d42-2349649214be}, !- Name
  {031d0c38-d623-444c-bbc2-e5435dda6667}, !- Source Object
  8,                                      !- Outlet Port
  {006f15ed-07de-4a63-9200-0ef039f471b2}, !- Target Object
  2;                                      !- Inlet Port

OS:Connection,
  {0116d8ae-9cee-426a-a93e-c7243c6400cb}, !- Handle
  {98727053-ed78-4ce6-b33d-0c2cd93813e4}, !- Name
  {006f15ed-07de-4a63-9200-0ef039f471b2}, !- Source Object
  3,                                      !- Outlet Port
  {6c574bb0-4047-456a-9b25-5258425d7935}, !- Target Object
  2;                                      !- Inlet Port

OS:Connection,
  {1a21762f-0ff1-47df-9ff6-5643c646532d}, !- Handle
  {3472beec-8315-4d4c-99b6-6c1d9617e143}, !- Name
  {6c574bb0-4047-456a-9b25-5258425d7935}, !- Source Object
  3,                                      !- Outlet Port
  {031d0c38-d623-444c-bbc2-e5435dda6667}, !- Target Object
  11;                                     !- Inlet Port

OS:Node,
  {d850fed8-6251-45a2-b9dc-6c205b655c90}, !- Handle
  Node 3,                                 !- Name
  {f507b9c1-4a69-4d4b-bfd4-4264b9dae61c}, !- Inlet Port
  {af1d65e7-aa14-43f1-b2a9-32d96896a65b}; !- Outlet Port

OS:Node,
  {25dcb69a-df70-4b09-976f-e8a1bdd212d5}, !- Handle
  Node 4,                                 !- Name
  {ac6d2f6b-91a7-4a4a-951b-bf70e3174a21}, !- Inlet Port
  {3b5eaa53-2217-4e2a-9ae1-c3642c6981c3}; !- Outlet Port

OS:Node,
  {37c658fc-e6b7-446c-a8b8-b6323a0dab0a}, !- Handle
  Node 5,                                 !- Name
  {8ad19906-b026-448b-a603-b2747af9dbd2}, !- Inlet Port
  {c280b002-5456-4527-b8d0-1a2c7f0c5ac8}; !- Outlet Port

OS:Connection,
  {f507b9c1-4a69-4d4b-bfd4-4264b9dae61c}, !- Handle
  {39e13ce6-2ded-4270-9b19-1a61e5a38de0}, !- Name
  {031d0c38-d623-444c-bbc2-e5435dda6667}, !- Source Object
  10,                                     !- Outlet Port
  {d850fed8-6251-45a2-b9dc-6c205b655c90}, !- Target Object
  2;                                      !- Inlet Port

OS:Connection,
  {3b5eaa53-2217-4e2a-9ae1-c3642c6981c3}, !- Handle
  {8133c78f-a076-4a8f-9986-e152126c3b1a}, !- Name
  {25dcb69a-df70-4b09-976f-e8a1bdd212d5}, !- Source Object
  3,                                      !- Outlet Port
  {031d0c38-d623-444c-bbc2-e5435dda6667}, !- Target Object
  9;                                      !- Inlet Port

OS:AirLoopHVAC:ZoneSplitter,
  {a8aceddd-b251-4ead-95d2-96ff00ce36ce}, !- Handle
  Air Loop HVAC Zone Splitter 1,          !- Name
  {af1d65e7-aa14-43f1-b2a9-32d96896a65b}, !- Inlet Node Name
  {77a092a7-2bd9-475b-83b1-c1683c83e72d}; !- Outlet Node Name 1

OS:AirLoopHVAC:ZoneMixer,
  {c5f047fa-e49a-4c40-ad77-725b90bc41f9}, !- Handle
  Air Loop HVAC Zone Mixer 1,             !- Name
  {ac6d2f6b-91a7-4a4a-951b-bf70e3174a21}, !- Outlet Node Name
  {5afc9ffc-3da6-43f3-8f72-1f97e9a9184a}; !- Inlet Node Name 1

OS:Connection,
  {af1d65e7-aa14-43f1-b2a9-32d96896a65b}, !- Handle
  {70e87b1d-6a77-4a28-a69e-861f70e27d58}, !- Name
  {d850fed8-6251-45a2-b9dc-6c205b655c90}, !- Source Object
  3,                                      !- Outlet Port
  {a8aceddd-b251-4ead-95d2-96ff00ce36ce}, !- Target Object
  2;                                      !- Inlet Port

OS:Connection,
  {ac6d2f6b-91a7-4a4a-951b-bf70e3174a21}, !- Handle
  {d021af86-5ac9-4c33-9766-03ebc4262066}, !- Name
  {c5f047fa-e49a-4c40-ad77-725b90bc41f9}, !- Source Object
  2,                                      !- Outlet Port
  {25dcb69a-df70-4b09-976f-e8a1bdd212d5}, !- Target Object
  2;                                      !- Inlet Port

OS:Sizing:System,
  {939a7f07-ed3f-4692-946e-87abb854f93c}, !- Handle
  {031d0c38-d623-444c-bbc2-e5435dda6667}, !- AirLoop Name
  Sensible,                               !- Type of Load to Size On
  Autosize,                               !- Design Outdoor Air Flow Rate {m3/s}
  0.3,                                    !- Minimum System Air Flow Ratio
  7,                                      !- Preheat Design Temperature {C}
  0.008,                                  !- Preheat Design Humidity Ratio {kg-H2O/kg-Air}
  12.8,                                   !- Precool Design Temperature {C}
  0.008,                                  !- Precool Design Humidity Ratio {kg-H2O/kg-Air}
  12.8,                                   !- Central Cooling Design Supply Air Temperature {C}
  16.7,                                   !- Central Heating Design Supply Air Temperature {C}
  NonCoincident,                          !- Sizing Option
  Yes,                                    !- 100% Outdoor Air in Cooling
  Yes,                                    !- 100% Outdoor Air in Heating
  0.0085,                                 !- Central Cooling Design Supply Air Humidity Ratio {kg-H2O/kg-Air}
  0.008,                                  !- Central Heating Design Supply Air Humidity Ratio {kg-H2O/kg-Air}
  DesignDay,                              !- Cooling Design Air Flow Method
  0,                                      !- Cooling Design Air Flow Rate {m3/s}
  DesignDay,                              !- Heating Design Air Flow Method
  0,                                      !- Heating Design Air Flow Rate {m3/s}
  ZoneSum,                                !- System Outdoor Air Method
  1,                                      !- Zone Maximum Outdoor Air Fraction {dimensionless}
  0.0099676501,                           !- Cooling Supply Air Flow Rate Per Floor Area {m3/s-m2}
  1,                                      !- Cooling Fraction of Autosized Cooling Supply Air Flow Rate
  3.9475456e-005,                         !- Cooling Supply Air Flow Rate Per Unit Cooling Capacity {m3/s-W}
  0.0099676501,                           !- Heating Supply Air Flow Rate Per Floor Area {m3/s-m2}
  1,                                      !- Heating Fraction of Autosized Heating Supply Air Flow Rate
  1,                                      !- Heating Fraction of Autosized Cooling Supply Air Flow Rate
  3.1588213e-005,                         !- Heating Supply Air Flow Rate Per Unit Heating Capacity {m3/s-W}
  CoolingDesignCapacity,                  !- Cooling Design Capacity Method
  autosize,                               !- Cooling Design Capacity {W}
  234.7,                                  !- Cooling Design Capacity Per Floor Area {W/m2}
  1,                                      !- Fraction of Autosized Cooling Design Capacity
  HeatingDesignCapacity,                  !- Heating Design Capacity Method
  autosize,                               !- Heating Design Capacity {W}
  157,                                    !- Heating Design Capacity Per Floor Area {W/m2}
  1,                                      !- Fraction of Autosized Heating Design Capacity
  OnOff;                                  !- Central Cooling Capacity Control Method

OS:Schedule:Constant,
  {b2cf0689-96fa-4046-b7a7-84f606550dc1}, !- Handle
  Always On Discrete,                     !- Name
  {ce18fd1c-d19d-425e-ae6d-160edce6bd85}, !- Schedule Type Limits Name
  1;                                      !- Value

OS:ScheduleTypeLimits,
  {ce18fd1c-d19d-425e-ae6d-160edce6bd85}, !- Handle
  OnOff,                                  !- Name
  0,                                      !- Lower Limit Value
  1,                                      !- Upper Limit Value
  Discrete,                               !- Numeric Type
  Availability;                           !- Unit Type

OS:AvailabilityManagerAssignmentList,
  {1944c861-7327-4c3a-ba83-7691343e01bc}, !- Handle
  Air Loop HVAC 1 AvailabilityManagerAssignmentList; !- Name

OS:ThermalZone,
  {bf78d8e4-e5e3-4236-90b8-0addbdf926f1}, !- Handle
  ThermalZone [#DC0Ij6],                  !- Name
  ,                                       !- Multiplier
  ,                                       !- Ceiling Height {m}
  ,                                       !- Volume {m3}
  ,                                       !- Floor Area {m2}
  ,                                       !- Zone Inside Convection Algorithm
  ,                                       !- Zone Outside Convection Algorithm
  ,                                       !- Zone Conditioning Equipment List Name
  {6e6eb319-b1f7-4f1a-bee4-52985d487772}, !- Zone Air Inlet Port List
  {5b1c1d17-507c-4d43-a051-9be86b57f718}, !- Zone Air Exhaust Port List
  {a478e666-1fde-4ac3-9084-28e103b5a022}, !- Zone Air Node Name
  {586b5acf-d5f8-473e-a776-9fdf17fb3190}, !- Zone Return Air Node Name
  ,                                       !- Primary Daylighting Control Name
  ,                                       !- Fraction of Zone Controlled by Primary Daylighting Control
  ,                                       !- Secondary Daylighting Control Name
  ,                                       !- Fraction of Zone Controlled by Secondary Daylighting Control
  ,                                       !- Illuminance Map Name
  ,                                       !- Group Rendering Name
  ,                                       !- Thermostat Name
  No;                                     !- Use Ideal Air Loads

OS:Node,
  {13e88dbf-9930-4e76-b9ce-77bd55bd74c5}, !- Handle
  Node 6,                                 !- Name
  {a478e666-1fde-4ac3-9084-28e103b5a022}, !- Inlet Port
  ;                                       !- Outlet Port

OS:Connection,
  {a478e666-1fde-4ac3-9084-28e103b5a022}, !- Handle
  {7c92f15d-5f4a-44a3-a2dd-e9f3ffbd6f0e}, !- Name
  {bf78d8e4-e5e3-4236-90b8-0addbdf926f1}, !- Source Object
  11,                                     !- Outlet Port
  {13e88dbf-9930-4e76-b9ce-77bd55bd74c5}, !- Target Object
  2;                                      !- Inlet Port

OS:PortList,
  {6e6eb319-b1f7-4f1a-bee4-52985d487772}, !- Handle
  {50487416-8364-401a-ae02-d797b9a69cfd}, !- Name
  {bf78d8e4-e5e3-4236-90b8-0addbdf926f1}, !- HVAC Component
  {c280b002-5456-4527-b8d0-1a2c7f0c5ac8}; !- Port 1

OS:PortList,
  {5b1c1d17-507c-4d43-a051-9be86b57f718}, !- Handle
  {88a8cfc1-e6c1-49fa-8fb7-5800164b00d9}, !- Name
  {bf78d8e4-e5e3-4236-90b8-0addbdf926f1}; !- HVAC Component

OS:Sizing:Zone,
  {7c61b810-bf60-4251-bd20-486ba9d38acf}, !- Handle
  {bf78d8e4-e5e3-4236-90b8-0addbdf926f1}, !- Zone or ZoneList Name
  SupplyAirTemperature,                   !- Zone Cooling Design Supply Air Temperature Input Method
  14,                                     !- Zone Cooling Design Supply Air Temperature {C}
  11.11,                                  !- Zone Cooling Design Supply Air Temperature Difference {deltaC}
  SupplyAirTemperature,                   !- Zone Heating Design Supply Air Temperature Input Method
  40,                                     !- Zone Heating Design Supply Air Temperature {C}
  11.11,                                  !- Zone Heating Design Supply Air Temperature Difference {deltaC}
  0.0085,                                 !- Zone Cooling Design Supply Air Humidity Ratio {kg-H2O/kg-air}
  0.008,                                  !- Zone Heating Design Supply Air Humidity Ratio {kg-H2O/kg-air}
  ,                                       !- Zone Heating Sizing Factor
  ,                                       !- Zone Cooling Sizing Factor
  DesignDay,                              !- Cooling Design Air Flow Method
  ,                                       !- Cooling Design Air Flow Rate {m3/s}
  ,                                       !- Cooling Minimum Air Flow per Zone Floor Area {m3/s-m2}
  ,                                       !- Cooling Minimum Air Flow {m3/s}
  ,                                       !- Cooling Minimum Air Flow Fraction
  DesignDay,                              !- Heating Design Air Flow Method
  ,                                       !- Heating Design Air Flow Rate {m3/s}
  ,                                       !- Heating Maximum Air Flow per Zone Floor Area {m3/s-m2}
  ,                                       !- Heating Maximum Air Flow {m3/s}
  ,                                       !- Heating Maximum Air Flow Fraction
  ,                                       !- Design Zone Air Distribution Effectiveness in Cooling Mode
  ,                                       !- Design Zone Air Distribution Effectiveness in Heating Mode
  No,                                     !- Account for Dedicated Outdoor Air System
  NeutralSupplyAir,                       !- Dedicated Outdoor Air System Control Strategy
  autosize,                               !- Dedicated Outdoor Air Low Setpoint Temperature for Design {C}
  autosize;                               !- Dedicated Outdoor Air High Setpoint Temperature for Design {C}

OS:ZoneHVAC:EquipmentList,
  {d1940bad-8fc5-41ab-b818-13b10d76d5af}, !- Handle
  Zone HVAC Equipment List 1,             !- Name
  {bf78d8e4-e5e3-4236-90b8-0addbdf926f1}, !- Thermal Zone
  {a598f357-26c3-4037-a14e-939cdc8eb39f}, !- Zone Equipment 1
  1,                                      !- Zone Equipment Cooling Sequence 1
  1;                                      !- Zone Equipment Heating or No-Load Sequence 1

OS:Sizing:Zone,
  {dab983da-f963-430e-bb95-798a12068a43}, !- Handle
  {bf78d8e4-e5e3-4236-90b8-0addbdf926f1}, !- Zone or ZoneList Name
  SupplyAirTemperature,                   !- Zone Cooling Design Supply Air Temperature Input Method
  14,                                     !- Zone Cooling Design Supply Air Temperature {C}
  11.11,                                  !- Zone Cooling Design Supply Air Temperature Difference {deltaC}
  SupplyAirTemperature,                   !- Zone Heating Design Supply Air Temperature Input Method
  40,                                     !- Zone Heating Design Supply Air Temperature {C}
  11.11,                                  !- Zone Heating Design Supply Air Temperature Difference {deltaC}
  0.0085,                                 !- Zone Cooling Design Supply Air Humidity Ratio {kg-H2O/kg-air}
  0.008,                                  !- Zone Heating Design Supply Air Humidity Ratio {kg-H2O/kg-air}
  ,                                       !- Zone Heating Sizing Factor
  ,                                       !- Zone Cooling Sizing Factor
  DesignDay,                              !- Cooling Design Air Flow Method
  ,                                       !- Cooling Design Air Flow Rate {m3/s}
  ,                                       !- Cooling Minimum Air Flow per Zone Floor Area {m3/s-m2}
  ,                                       !- Cooling Minimum Air Flow {m3/s}
  ,                                       !- Cooling Minimum Air Flow Fraction
  DesignDay,                              !- Heating Design Air Flow Method
  ,                                       !- Heating Design Air Flow Rate {m3/s}
  ,                                       !- Heating Maximum Air Flow per Zone Floor Area {m3/s-m2}
  ,                                       !- Heating Maximum Air Flow {m3/s}
  ,                                       !- Heating Maximum Air Flow Fraction
  ,                                       !- Design Zone Air Distribution Effectiveness in Cooling Mode
  ,                                       !- Design Zone Air Distribution Effectiveness in Heating Mode
  No,                                     !- Account for Dedicated Outdoor Air System
  NeutralSupplyAir,                       !- Dedicated Outdoor Air System Control Strategy
  autosize,                               !- Dedicated Outdoor Air Low Setpoint Temperature for Design {C}
  autosize;                               !- Dedicated Outdoor Air High Setpoint Temperature for Design {C}

OS:Coil:Heating:Water,
  {50a76ba0-46c2-46ee-8332-12cb4e498051}, !- Handle
  Coil Heating Water 1,                   !- Name
  {b2cf0689-96fa-4046-b7a7-84f606550dc1}, !- Availability Schedule Name
  ,                                       !- U-Factor Times Area Value {W/K}
  ,                                       !- Maximum Water Flow Rate {m3/s}
  ,                                       !- Water Inlet Node Name
  ,                                       !- Water Outlet Node Name
  ,                                       !- Air Inlet Node Name
  ,                                       !- Air Outlet Node Name
  ,                                       !- Performance Input Method
  ,                                       !- Rated Capacity {W}
  ,                                       !- Rated Inlet Water Temperature {C}
  ,                                       !- Rated Inlet Air Temperature {C}
  ,                                       !- Rated Outlet Water Temperature {C}
  ,                                       !- Rated Outlet Air Temperature {C}
  ;                                       !- Rated Ratio for Air and Water Convection

OS:AirTerminal:SingleDuct:VAV:Reheat,
  {a598f357-26c3-4037-a14e-939cdc8eb39f}, !- Handle
  AirTerminal:SingleDuct:VAV:Reheat [#5fhTIk], !- Name
  {b2cf0689-96fa-4046-b7a7-84f606550dc1}, !- Availability Schedule Name
  {01049f0d-b96c-42b0-97f7-fc0ba475d660}, !- Air Inlet Node Name
  AutoSize,                               !- Maximum Air Flow Rate {m3/s}
  Constant,                               !- Zone Minimum Air Flow Input Method
  0.3,                                    !- Constant Minimum Air Flow Fraction
  0,                                      !- Fixed Minimum Air Flow Rate {m3/s}
  ,                                       !- Minimum Air Flow Fraction Schedule Name
  {87d916aa-937b-4265-a47d-34a7f47e7a06}, !- Reheat Coil Name
  AutoSize,                               !- Maximum Hot Water or Steam Flow Rate {m3/s}
  0,                                      !- Minimum Hot Water or Steam Flow Rate {m3/s}
  {8ad19906-b026-448b-a603-b2747af9dbd2}, !- Air Outlet Node Name
  0.001,                                  !- Convergence Tolerance
  Normal,                                 !- Damper Heating Action
  AutoSize,                               !- Maximum Flow per Zone Floor Area During Reheat {m3/s-m2}
  AutoSize,                               !- Maximum Flow Fraction During Reheat
  35,                                     !- Maximum Reheat Air Temperature {C}
  No;                                     !- Control For Outdoor Air

OS:Coil:Heating:Water,
  {87d916aa-937b-4265-a47d-34a7f47e7a06}, !- Handle
  Coil:Heating:Water [#eRhJ47],           !- Name
  {b2cf0689-96fa-4046-b7a7-84f606550dc1}, !- Availability Schedule Name
  ,                                       !- U-Factor Times Area Value {W/K}
  ,                                       !- Maximum Water Flow Rate {m3/s}
  ,                                       !- Water Inlet Node Name
  ,                                       !- Water Outlet Node Name
  ,                                       !- Air Inlet Node Name
  ,                                       !- Air Outlet Node Name
  ,                                       !- Performance Input Method
  ,                                       !- Rated Capacity {W}
  60,                                     !- Rated Inlet Water Temperature {C}
  ,                                       !- Rated Inlet Air Temperature {C}
  ,                                       !- Rated Outlet Water Temperature {C}
  ,                                       !- Rated Outlet Air Temperature {C}
  ;                                       !- Rated Ratio for Air and Water Convection

OS:Node,
  {0d267a76-c823-4afe-888f-cc2db85efa16}, !- Handle
  Node 7,                                 !- Name
  {586b5acf-d5f8-473e-a776-9fdf17fb3190}, !- Inlet Port
  {5afc9ffc-3da6-43f3-8f72-1f97e9a9184a}; !- Outlet Port

OS:Connection,
  {c280b002-5456-4527-b8d0-1a2c7f0c5ac8}, !- Handle
  {23459504-b7cb-4305-9111-0148cfc249be}, !- Name
  {37c658fc-e6b7-446c-a8b8-b6323a0dab0a}, !- Source Object
  3,                                      !- Outlet Port
  {6e6eb319-b1f7-4f1a-bee4-52985d487772}, !- Target Object
  3;                                      !- Inlet Port

OS:Connection,
  {586b5acf-d5f8-473e-a776-9fdf17fb3190}, !- Handle
  {2cb85f85-15fe-407c-919c-cd12ede3f83a}, !- Name
  {bf78d8e4-e5e3-4236-90b8-0addbdf926f1}, !- Source Object
  12,                                     !- Outlet Port
  {0d267a76-c823-4afe-888f-cc2db85efa16}, !- Target Object
  2;                                      !- Inlet Port

OS:Connection,
  {5afc9ffc-3da6-43f3-8f72-1f97e9a9184a}, !- Handle
  {12d25125-8ad3-414e-8be7-64b97367d508}, !- Name
  {0d267a76-c823-4afe-888f-cc2db85efa16}, !- Source Object
  3,                                      !- Outlet Port
  {c5f047fa-e49a-4c40-ad77-725b90bc41f9}, !- Target Object
  3;                                      !- Inlet Port

OS:Node,
  {966feec9-ca1f-443c-991d-95be41d3e3be}, !- Handle
  Node 8,                                 !- Name
  {77a092a7-2bd9-475b-83b1-c1683c83e72d}, !- Inlet Port
  {01049f0d-b96c-42b0-97f7-fc0ba475d660}; !- Outlet Port

OS:Connection,
  {77a092a7-2bd9-475b-83b1-c1683c83e72d}, !- Handle
  {008f193d-7ebf-4ae9-9fe4-44351735a5e9}, !- Name
  {a8aceddd-b251-4ead-95d2-96ff00ce36ce}, !- Source Object
  3,                                      !- Outlet Port
  {966feec9-ca1f-443c-991d-95be41d3e3be}, !- Target Object
  2;                                      !- Inlet Port

OS:Connection,
  {01049f0d-b96c-42b0-97f7-fc0ba475d660}, !- Handle
  {990abec8-2cd0-4e2b-92bb-5b5357ae054c}, !- Name
  {966feec9-ca1f-443c-991d-95be41d3e3be}, !- Source Object
  3,                                      !- Outlet Port
  {a598f357-26c3-4037-a14e-939cdc8eb39f}, !- Target Object
  3;                                      !- Inlet Port

OS:Connection,
  {8ad19906-b026-448b-a603-b2747af9dbd2}, !- Handle
  {6aaf2c17-f30a-4898-9219-18073562c621}, !- Name
  {a598f357-26c3-4037-a14e-939cdc8eb39f}, !- Source Object
  12,                                     !- Outlet Port
  {37c658fc-e6b7-446c-a8b8-b6323a0dab0a}, !- Target Object
  2;                                      !- Inlet Port

