
OS:Version,
  {33e1900d-c342-4e27-9b9f-462d9eafc965}, !- Handle
  2.4.0;                                  !- Version Identifier

OS:AirLoopHVAC,
  {54ce4d77-3c35-46cf-9539-089c6e7a5db0}, !- Handle
  Air Loop HVAC 1,                        !- Name
  ,                                       !- Controller List Name
  {2441a8e6-1bf8-4696-836f-5d9f8e29816a}, !- Availability Schedule
  {13f9b41b-dedb-4d69-b7ec-b015a7e793ea}, !- Availability Manager List Name
  AutoSize,                               !- Design Supply Air Flow Rate {m3/s}
  ,                                       !- Branch List Name
  ,                                       !- Connector List Name
  {4da4c1e2-40d8-4dff-ac9c-a78b851b3137}, !- Supply Side Inlet Node Name
  {897cd485-c2e1-4170-a31c-1bc889b67643}, !- Demand Side Outlet Node Name
  {e98f501a-3e75-4ec2-a78a-3b4c2747a19c}, !- Demand Side Inlet Node A
  {b10c992d-4d89-49cd-8d86-d92c77199f40}, !- Supply Side Outlet Node A
  ,                                       !- Demand Side Inlet Node B
  ,                                       !- Supply Side Outlet Node B
  ,                                       !- Return Air Bypass Flow Temperature Setpoint Schedule Name
  {c0057c42-0208-42d2-81bf-8b4c89d02b93}, !- Demand Mixer Name
  {406bc63a-cc88-4f53-9bcc-8b924bb7ca88}, !- Demand Splitter A Name
  ,                                       !- Demand Splitter B Name
  ;                                       !- Supply Splitter Name

OS:Node,
  {d7bebc02-9dd2-4fe3-bc13-1895239d2e6e}, !- Handle
  Node 1,                                 !- Name
  {4da4c1e2-40d8-4dff-ac9c-a78b851b3137}, !- Inlet Port
  {5a9b0ea3-b74d-4dfa-8195-d7c2840b0be3}; !- Outlet Port

OS:Node,
  {a3617a7c-b31f-4772-b5ef-84aa453da496}, !- Handle
  Node 2,                                 !- Name
  {5a9b0ea3-b74d-4dfa-8195-d7c2840b0be3}, !- Inlet Port
  {b10c992d-4d89-49cd-8d86-d92c77199f40}; !- Outlet Port

OS:Connection,
  {4da4c1e2-40d8-4dff-ac9c-a78b851b3137}, !- Handle
  {eaf60932-6026-430c-9083-fb97c90a8ef2}, !- Name
  {54ce4d77-3c35-46cf-9539-089c6e7a5db0}, !- Source Object
  8,                                      !- Outlet Port
  {d7bebc02-9dd2-4fe3-bc13-1895239d2e6e}, !- Target Object
  2;                                      !- Inlet Port

OS:Connection,
  {5a9b0ea3-b74d-4dfa-8195-d7c2840b0be3}, !- Handle
  {25e7f2c5-7c99-47c8-b4b5-6e7a06c4cda6}, !- Name
  {d7bebc02-9dd2-4fe3-bc13-1895239d2e6e}, !- Source Object
  3,                                      !- Outlet Port
  {a3617a7c-b31f-4772-b5ef-84aa453da496}, !- Target Object
  2;                                      !- Inlet Port

OS:Connection,
  {b10c992d-4d89-49cd-8d86-d92c77199f40}, !- Handle
  {1022bd96-d6f2-4740-b32d-80101d2b8cca}, !- Name
  {a3617a7c-b31f-4772-b5ef-84aa453da496}, !- Source Object
  3,                                      !- Outlet Port
  {54ce4d77-3c35-46cf-9539-089c6e7a5db0}, !- Target Object
  11;                                     !- Inlet Port

OS:Node,
  {cfee2701-b5dc-4f00-a775-65a3fe431009}, !- Handle
  Node 3,                                 !- Name
  {e98f501a-3e75-4ec2-a78a-3b4c2747a19c}, !- Inlet Port
  {0b6f78ff-e253-4427-8df7-e64377b376a8}; !- Outlet Port

OS:Node,
  {c3e728d1-567e-4f6e-99b3-51393b8909c7}, !- Handle
  Node 4,                                 !- Name
  {5d2f2dbd-ca1c-45d9-a95c-ebe22c494d87}, !- Inlet Port
  {897cd485-c2e1-4170-a31c-1bc889b67643}; !- Outlet Port

OS:Node,
  {62223385-135d-4ad4-aa4a-25064c5132c9}, !- Handle
  Node 5,                                 !- Name
  {44148908-6058-4db2-9ca4-d08df3b5bb6b}, !- Inlet Port
  {1db15680-4afa-4774-ac52-5b1ffa640a0f}; !- Outlet Port

OS:Connection,
  {e98f501a-3e75-4ec2-a78a-3b4c2747a19c}, !- Handle
  {d2f8f6d5-83c4-4126-b88d-faba58e89753}, !- Name
  {54ce4d77-3c35-46cf-9539-089c6e7a5db0}, !- Source Object
  10,                                     !- Outlet Port
  {cfee2701-b5dc-4f00-a775-65a3fe431009}, !- Target Object
  2;                                      !- Inlet Port

OS:Connection,
  {897cd485-c2e1-4170-a31c-1bc889b67643}, !- Handle
  {58f28163-9d84-4883-a7a5-61b74bc29d93}, !- Name
  {c3e728d1-567e-4f6e-99b3-51393b8909c7}, !- Source Object
  3,                                      !- Outlet Port
  {54ce4d77-3c35-46cf-9539-089c6e7a5db0}, !- Target Object
  9;                                      !- Inlet Port

OS:AirLoopHVAC:ZoneSplitter,
  {406bc63a-cc88-4f53-9bcc-8b924bb7ca88}, !- Handle
  Air Loop HVAC Zone Splitter 1,          !- Name
  {0b6f78ff-e253-4427-8df7-e64377b376a8}, !- Inlet Node Name
  {44148908-6058-4db2-9ca4-d08df3b5bb6b}; !- Outlet Node Name 1

OS:AirLoopHVAC:ZoneMixer,
  {c0057c42-0208-42d2-81bf-8b4c89d02b93}, !- Handle
  Air Loop HVAC Zone Mixer 1,             !- Name
  {5d2f2dbd-ca1c-45d9-a95c-ebe22c494d87}, !- Outlet Node Name
  {1db15680-4afa-4774-ac52-5b1ffa640a0f}; !- Inlet Node Name 1

OS:Connection,
  {0b6f78ff-e253-4427-8df7-e64377b376a8}, !- Handle
  {ecb4d4f2-a15b-4080-b8b8-ac0ffe24b4be}, !- Name
  {cfee2701-b5dc-4f00-a775-65a3fe431009}, !- Source Object
  3,                                      !- Outlet Port
  {406bc63a-cc88-4f53-9bcc-8b924bb7ca88}, !- Target Object
  2;                                      !- Inlet Port

OS:Connection,
  {44148908-6058-4db2-9ca4-d08df3b5bb6b}, !- Handle
  {760e2b13-0972-423a-b7d6-5d938f1affbb}, !- Name
  {406bc63a-cc88-4f53-9bcc-8b924bb7ca88}, !- Source Object
  3,                                      !- Outlet Port
  {62223385-135d-4ad4-aa4a-25064c5132c9}, !- Target Object
  2;                                      !- Inlet Port

OS:Connection,
  {1db15680-4afa-4774-ac52-5b1ffa640a0f}, !- Handle
  {4f82b30f-2a5d-42e5-8f8a-e80a46b7e0cc}, !- Name
  {62223385-135d-4ad4-aa4a-25064c5132c9}, !- Source Object
  3,                                      !- Outlet Port
  {c0057c42-0208-42d2-81bf-8b4c89d02b93}, !- Target Object
  3;                                      !- Inlet Port

OS:Connection,
  {5d2f2dbd-ca1c-45d9-a95c-ebe22c494d87}, !- Handle
  {812372e7-8085-45d1-a3d1-675b47833d94}, !- Name
  {c0057c42-0208-42d2-81bf-8b4c89d02b93}, !- Source Object
  2,                                      !- Outlet Port
  {c3e728d1-567e-4f6e-99b3-51393b8909c7}, !- Target Object
  2;                                      !- Inlet Port

OS:Sizing:System,
  {c7cc0283-1804-49af-ab82-e99878768c2f}, !- Handle
  {54ce4d77-3c35-46cf-9539-089c6e7a5db0}, !- AirLoop Name
  Sensible,                               !- Type of Load to Size On
  Autosize,                               !- Design Outdoor Air Flow Rate {m3/s}
  0.3,                                    !- Minimum System Air Flow Ratio
  7,                                      !- Preheat Design Temperature {C}
  0.008,                                  !- Preheat Design Humidity Ratio {kg-H2O/kg-Air}
  12.8,                                   !- Precool Design Temperature {C}
  0.008,                                  !- Precool Design Humidity Ratio {kg-H2O/kg-Air}
  12.8,                                   !- Central Cooling Design Supply Air Temperature {C}
  16.7,                                   !- Central Heating Design Supply Air Temperature {C}
  NonCoincident,                          !- Sizing Option
  Yes,                                    !- 100% Outdoor Air in Cooling
  Yes,                                    !- 100% Outdoor Air in Heating
  0.0085,                                 !- Central Cooling Design Supply Air Humidity Ratio {kg-H2O/kg-Air}
  0.008,                                  !- Central Heating Design Supply Air Humidity Ratio {kg-H2O/kg-Air}
  DesignDay,                              !- Cooling Design Air Flow Method
  0,                                      !- Cooling Design Air Flow Rate {m3/s}
  DesignDay,                              !- Heating Design Air Flow Method
  0,                                      !- Heating Design Air Flow Rate {m3/s}
  ZoneSum,                                !- System Outdoor Air Method
  1,                                      !- Zone Maximum Outdoor Air Fraction {dimensionless}
  0.0099676501,                           !- Cooling Supply Air Flow Rate Per Floor Area {m3/s-m2}
  1,                                      !- Cooling Fraction of Autosized Cooling Supply Air Flow Rate
  3.9475456e-005,                         !- Cooling Supply Air Flow Rate Per Unit Cooling Capacity {m3/s-W}
  0.0099676501,                           !- Heating Supply Air Flow Rate Per Floor Area {m3/s-m2}
  1,                                      !- Heating Fraction of Autosized Heating Supply Air Flow Rate
  1,                                      !- Heating Fraction of Autosized Cooling Supply Air Flow Rate
  3.1588213e-005,                         !- Heating Supply Air Flow Rate Per Unit Heating Capacity {m3/s-W}
  CoolingDesignCapacity,                  !- Cooling Design Capacity Method
  autosize,                               !- Cooling Design Capacity {W}
  234.7,                                  !- Cooling Design Capacity Per Floor Area {W/m2}
  1,                                      !- Fraction of Autosized Cooling Design Capacity
  HeatingDesignCapacity,                  !- Heating Design Capacity Method
  autosize,                               !- Heating Design Capacity {W}
  157,                                    !- Heating Design Capacity Per Floor Area {W/m2}
  1,                                      !- Fraction of Autosized Heating Design Capacity
  OnOff;                                  !- Central Cooling Capacity Control Method

OS:Schedule:Constant,
  {2441a8e6-1bf8-4696-836f-5d9f8e29816a}, !- Handle
  Always On Discrete,                     !- Name
  {9509731a-08b0-4a14-b0be-7da601cfa826}, !- Schedule Type Limits Name
  1;                                      !- Value

OS:ScheduleTypeLimits,
  {9509731a-08b0-4a14-b0be-7da601cfa826}, !- Handle
  OnOff,                                  !- Name
  0,                                      !- Lower Limit Value
  1,                                      !- Upper Limit Value
  Discrete,                               !- Numeric Type
  Availability;                           !- Unit Type

OS:AvailabilityManagerAssignmentList,
  {13f9b41b-dedb-4d69-b7ec-b015a7e793ea}, !- Handle
  Air Loop HVAC 1 AvailabilityManagerAssignmentList; !- Name

