
OS:Version,
  {dfeed2c2-c4eb-4b67-a4bc-29d992db540d}, !- Handle
  2.4.0;                                  !- Version Identifier

! TrackingID:#[USUPKr]
OS:AirLoopHVAC,
  {c8bdbb60-efbf-448d-a59c-473d77549b6c}, !- Handle
  Air Loop HVAC 1,                        !- Name
  ,                                       !- Controller List Name
  {0bbdd3ef-18ff-4820-be86-e606b47d41c7}, !- Availability Schedule
  {35d264d6-250b-43cf-a36e-51bbe08e5525}, !- Availability Manager List Name
  AutoSize,                               !- Design Supply Air Flow Rate {m3/s}
  ,                                       !- Branch List Name
  ,                                       !- Connector List Name
  {9d41275e-e1c8-4ffb-8d93-ea99fa34885f}, !- Supply Side Inlet Node Name
  {2d3aed2a-5d98-49ac-b4cc-3e4c6e8f1ea2}, !- Demand Side Outlet Node Name
  {985b602e-e9dc-438a-80bc-4c108ecba680}, !- Demand Side Inlet Node A
  {00e3d04f-a1a1-4cd2-8a7b-ca5e1ea5059e}, !- Supply Side Outlet Node A
  ,                                       !- Demand Side Inlet Node B
  ,                                       !- Supply Side Outlet Node B
  ,                                       !- Return Air Bypass Flow Temperature Setpoint Schedule Name
  {afad8655-8569-41ea-b816-e0657dd11efe}, !- Demand Mixer Name
  {2de2f1c2-ead2-4213-87b6-02ad473bb425}, !- Demand Splitter A Name
  ,                                       !- Demand Splitter B Name
  ;                                       !- Supply Splitter Name

OS:Node,
  {91e2268e-2338-49b4-a572-b7cfe7c2957d}, !- Handle
  Node 1,                                 !- Name
  {9d41275e-e1c8-4ffb-8d93-ea99fa34885f}, !- Inlet Port
  {31781158-1927-4385-8783-e8a5b997228f}; !- Outlet Port

OS:Node,
  {5dd206af-d39d-4876-805e-fba88f19badb}, !- Handle
  Node 2,                                 !- Name
  {b08337de-b4ac-4fc3-9a0b-ba794f032e36}, !- Inlet Port
  {00e3d04f-a1a1-4cd2-8a7b-ca5e1ea5059e}; !- Outlet Port

OS:Connection,
  {9d41275e-e1c8-4ffb-8d93-ea99fa34885f}, !- Handle
  {b0096890-9c22-4ed2-bba8-b84b2e355d0a}, !- Name
  {c8bdbb60-efbf-448d-a59c-473d77549b6c}, !- Source Object
  8,                                      !- Outlet Port
  {91e2268e-2338-49b4-a572-b7cfe7c2957d}, !- Target Object
  2;                                      !- Inlet Port

OS:Connection,
  {00e3d04f-a1a1-4cd2-8a7b-ca5e1ea5059e}, !- Handle
  {3230e601-61bc-400c-8357-908eaaf64157}, !- Name
  {5dd206af-d39d-4876-805e-fba88f19badb}, !- Source Object
  3,                                      !- Outlet Port
  {c8bdbb60-efbf-448d-a59c-473d77549b6c}, !- Target Object
  11;                                     !- Inlet Port

OS:Node,
  {1f41e8a8-02f1-4da7-893f-762647c29084}, !- Handle
  Node 3,                                 !- Name
  {985b602e-e9dc-438a-80bc-4c108ecba680}, !- Inlet Port
  {35775088-99c2-47f9-96eb-e942e2f8c185}; !- Outlet Port

OS:Node,
  {42f25327-a8e2-4617-b92e-2599397105eb}, !- Handle
  Node 4,                                 !- Name
  {8ccc9aaa-5540-4f94-a6ad-2cd0e8403952}, !- Inlet Port
  {2d3aed2a-5d98-49ac-b4cc-3e4c6e8f1ea2}; !- Outlet Port

OS:Node,
  {97e8859f-bc5b-41bf-89c1-fc3268b51b3b}, !- Handle
  Node 5,                                 !- Name
  {9a0e0884-3247-40a8-98d0-d35a17e2743f}, !- Inlet Port
  {3572ff5d-f6b5-44f1-b4d3-7eabba1c4ff3}; !- Outlet Port

OS:Connection,
  {985b602e-e9dc-438a-80bc-4c108ecba680}, !- Handle
  {bc007b1b-dfc5-4f1a-9981-a2f900eb4564}, !- Name
  {c8bdbb60-efbf-448d-a59c-473d77549b6c}, !- Source Object
  10,                                     !- Outlet Port
  {1f41e8a8-02f1-4da7-893f-762647c29084}, !- Target Object
  2;                                      !- Inlet Port

OS:Connection,
  {2d3aed2a-5d98-49ac-b4cc-3e4c6e8f1ea2}, !- Handle
  {3f9c2754-cfe6-46eb-bda2-7679e03b7b4e}, !- Name
  {42f25327-a8e2-4617-b92e-2599397105eb}, !- Source Object
  3,                                      !- Outlet Port
  {c8bdbb60-efbf-448d-a59c-473d77549b6c}, !- Target Object
  9;                                      !- Inlet Port

OS:AirLoopHVAC:ZoneSplitter,
  {2de2f1c2-ead2-4213-87b6-02ad473bb425}, !- Handle
  Air Loop HVAC Zone Splitter 1,          !- Name
  {35775088-99c2-47f9-96eb-e942e2f8c185}, !- Inlet Node Name
  {2b99bdcd-2e9a-49ec-b7df-4a500cb66880}, !- Outlet Node Name 1
  {50c43488-35c5-479c-85bf-260a568fc85c}; !- Outlet Node Name 2

OS:AirLoopHVAC:ZoneMixer,
  {afad8655-8569-41ea-b816-e0657dd11efe}, !- Handle
  Air Loop HVAC Zone Mixer 1,             !- Name
  {8ccc9aaa-5540-4f94-a6ad-2cd0e8403952}, !- Outlet Node Name
  {ecb14a5e-e1a4-4254-8123-ed32d086766b}, !- Inlet Node Name 1
  {e38e14f8-1354-41de-9729-f220f1a3bc92}; !- Inlet Node Name 2

OS:Connection,
  {35775088-99c2-47f9-96eb-e942e2f8c185}, !- Handle
  {cfa8bcdf-6e2c-434f-8373-6177fd7d2942}, !- Name
  {1f41e8a8-02f1-4da7-893f-762647c29084}, !- Source Object
  3,                                      !- Outlet Port
  {2de2f1c2-ead2-4213-87b6-02ad473bb425}, !- Target Object
  2;                                      !- Inlet Port

OS:Connection,
  {8ccc9aaa-5540-4f94-a6ad-2cd0e8403952}, !- Handle
  {02359065-282e-4539-80d8-4b9d051e0158}, !- Name
  {afad8655-8569-41ea-b816-e0657dd11efe}, !- Source Object
  2,                                      !- Outlet Port
  {42f25327-a8e2-4617-b92e-2599397105eb}, !- Target Object
  2;                                      !- Inlet Port

OS:Sizing:System,
  {31413b6c-ce42-415a-a54d-fa3f38fc6ad5}, !- Handle
  {c8bdbb60-efbf-448d-a59c-473d77549b6c}, !- AirLoop Name
  Sensible,                               !- Type of Load to Size On
  Autosize,                               !- Design Outdoor Air Flow Rate {m3/s}
  0.3,                                    !- Minimum System Air Flow Ratio
  7,                                      !- Preheat Design Temperature {C}
  0.008,                                  !- Preheat Design Humidity Ratio {kg-H2O/kg-Air}
  12.8,                                   !- Precool Design Temperature {C}
  0.008,                                  !- Precool Design Humidity Ratio {kg-H2O/kg-Air}
  12.8,                                   !- Central Cooling Design Supply Air Temperature {C}
  16.7,                                   !- Central Heating Design Supply Air Temperature {C}
  NonCoincident,                          !- Sizing Option
  Yes,                                    !- 100% Outdoor Air in Cooling
  Yes,                                    !- 100% Outdoor Air in Heating
  0.0085,                                 !- Central Cooling Design Supply Air Humidity Ratio {kg-H2O/kg-Air}
  0.008,                                  !- Central Heating Design Supply Air Humidity Ratio {kg-H2O/kg-Air}
  DesignDay,                              !- Cooling Design Air Flow Method
  0,                                      !- Cooling Design Air Flow Rate {m3/s}
  DesignDay,                              !- Heating Design Air Flow Method
  0,                                      !- Heating Design Air Flow Rate {m3/s}
  ZoneSum,                                !- System Outdoor Air Method
  1,                                      !- Zone Maximum Outdoor Air Fraction {dimensionless}
  0.0099676501,                           !- Cooling Supply Air Flow Rate Per Floor Area {m3/s-m2}
  1,                                      !- Cooling Fraction of Autosized Cooling Supply Air Flow Rate
  3.9475456e-005,                         !- Cooling Supply Air Flow Rate Per Unit Cooling Capacity {m3/s-W}
  0.0099676501,                           !- Heating Supply Air Flow Rate Per Floor Area {m3/s-m2}
  1,                                      !- Heating Fraction of Autosized Heating Supply Air Flow Rate
  1,                                      !- Heating Fraction of Autosized Cooling Supply Air Flow Rate
  3.1588213e-005,                         !- Heating Supply Air Flow Rate Per Unit Heating Capacity {m3/s-W}
  CoolingDesignCapacity,                  !- Cooling Design Capacity Method
  autosize,                               !- Cooling Design Capacity {W}
  234.7,                                  !- Cooling Design Capacity Per Floor Area {W/m2}
  1,                                      !- Fraction of Autosized Cooling Design Capacity
  HeatingDesignCapacity,                  !- Heating Design Capacity Method
  autosize,                               !- Heating Design Capacity {W}
  157,                                    !- Heating Design Capacity Per Floor Area {W/m2}
  1,                                      !- Fraction of Autosized Heating Design Capacity
  OnOff;                                  !- Central Cooling Capacity Control Method

OS:Schedule:Constant,
  {0bbdd3ef-18ff-4820-be86-e606b47d41c7}, !- Handle
  Always On Discrete,                     !- Name
  {5c2505e4-3027-4970-a3c5-33c803286de7}, !- Schedule Type Limits Name
  1;                                      !- Value

OS:ScheduleTypeLimits,
  {5c2505e4-3027-4970-a3c5-33c803286de7}, !- Handle
  OnOff,                                  !- Name
  0,                                      !- Lower Limit Value
  1,                                      !- Upper Limit Value
  Discrete,                               !- Numeric Type
  Availability;                           !- Unit Type

OS:AvailabilityManagerAssignmentList,
  {35d264d6-250b-43cf-a36e-51bbe08e5525}, !- Handle
  Air Loop HVAC 1 AvailabilityManagerAssignmentList; !- Name

! TrackingID:#[iAXf4b]
OS:Fan:VariableVolume,
  {677916e9-7c18-46da-9b17-f329e96feef1}, !- Handle
  Fan Variable Volume 1,                  !- Name
  {0bbdd3ef-18ff-4820-be86-e606b47d41c7}, !- Availability Schedule Name
  0.6045,                                 !- Fan Efficiency
  1017.592,                               !- Pressure Rise {Pa}
  Autosize,                               !- Maximum Flow Rate {m3/s}
  FixedFlowRate,                          !- Fan Power Minimum Flow Rate Input Method
  0,                                      !- Fan Power Minimum Flow Fraction
  0,                                      !- Fan Power Minimum Air Flow Rate {m3/s}
  0.93,                                   !- Motor Efficiency
  1,                                      !- Motor In Airstream Fraction
  0.040759894,                            !- Fan Power Coefficient 1
  0.08804497,                             !- Fan Power Coefficient 2
  -0.07292612,                            !- Fan Power Coefficient 3
  0.943739823,                            !- Fan Power Coefficient 4
  0,                                      !- Fan Power Coefficient 5
  {31781158-1927-4385-8783-e8a5b997228f}, !- Air Inlet Node Name
  {b08337de-b4ac-4fc3-9a0b-ba794f032e36}, !- Air Outlet Node Name
  ;                                       !- End-Use Subcategory

OS:Connection,
  {31781158-1927-4385-8783-e8a5b997228f}, !- Handle
  {349241fb-deaa-4cbe-86b4-2cf3063718ab}, !- Name
  {91e2268e-2338-49b4-a572-b7cfe7c2957d}, !- Source Object
  3,                                      !- Outlet Port
  {677916e9-7c18-46da-9b17-f329e96feef1}, !- Target Object
  16;                                     !- Inlet Port

OS:Connection,
  {b08337de-b4ac-4fc3-9a0b-ba794f032e36}, !- Handle
  {77b5529e-48a5-483f-a5c7-1f721cea6231}, !- Name
  {677916e9-7c18-46da-9b17-f329e96feef1}, !- Source Object
  17,                                     !- Outlet Port
  {5dd206af-d39d-4876-805e-fba88f19badb}, !- Target Object
  2;                                      !- Inlet Port

! TrackingID:#[XjL0rm]
OS:ThermalZone,
  {dd9bb961-9bd8-43d9-b878-fe1a8a0d2575}, !- Handle
  zone_0,                                 !- Name
  ,                                       !- Multiplier
  ,                                       !- Ceiling Height {m}
  ,                                       !- Volume {m3}
  ,                                       !- Floor Area {m2}
  ,                                       !- Zone Inside Convection Algorithm
  ,                                       !- Zone Outside Convection Algorithm
  ,                                       !- Zone Conditioning Equipment List Name
  {8fee1dff-f42f-439f-b2d2-51cde597e822}, !- Zone Air Inlet Port List
  {9ba47ae8-2ab1-4a1d-969d-654d6cfd3fc3}, !- Zone Air Exhaust Port List
  {016dab9c-9c8e-40e5-8371-edeccb2740f4}, !- Zone Air Node Name
  {2fe88aba-7067-493a-ae64-fd7e26af29d2}, !- Zone Return Air Node Name
  ,                                       !- Primary Daylighting Control Name
  ,                                       !- Fraction of Zone Controlled by Primary Daylighting Control
  ,                                       !- Secondary Daylighting Control Name
  ,                                       !- Fraction of Zone Controlled by Secondary Daylighting Control
  ,                                       !- Illuminance Map Name
  ,                                       !- Group Rendering Name
  ,                                       !- Thermostat Name
  No;                                     !- Use Ideal Air Loads

OS:Node,
  {f91293a5-9f26-47e1-a7c4-a1c70307a00e}, !- Handle
  Node 6,                                 !- Name
  {016dab9c-9c8e-40e5-8371-edeccb2740f4}, !- Inlet Port
  ;                                       !- Outlet Port

OS:Connection,
  {016dab9c-9c8e-40e5-8371-edeccb2740f4}, !- Handle
  {18e325d1-b313-4d97-9ca4-7a46e03bb7dd}, !- Name
  {dd9bb961-9bd8-43d9-b878-fe1a8a0d2575}, !- Source Object
  11,                                     !- Outlet Port
  {f91293a5-9f26-47e1-a7c4-a1c70307a00e}, !- Target Object
  2;                                      !- Inlet Port

OS:PortList,
  {8fee1dff-f42f-439f-b2d2-51cde597e822}, !- Handle
  {736795fe-c3f9-470d-856a-c09fbc7e25e1}, !- Name
  {dd9bb961-9bd8-43d9-b878-fe1a8a0d2575}, !- HVAC Component
  {3572ff5d-f6b5-44f1-b4d3-7eabba1c4ff3}; !- Port 1

OS:PortList,
  {9ba47ae8-2ab1-4a1d-969d-654d6cfd3fc3}, !- Handle
  {331b4249-1dbf-4d9a-9a97-bd5594b25c0a}, !- Name
  {dd9bb961-9bd8-43d9-b878-fe1a8a0d2575}; !- HVAC Component

OS:Sizing:Zone,
  {3cd36578-c73f-41d3-9337-497c3eb11a77}, !- Handle
  {dd9bb961-9bd8-43d9-b878-fe1a8a0d2575}, !- Zone or ZoneList Name
  SupplyAirTemperature,                   !- Zone Cooling Design Supply Air Temperature Input Method
  14,                                     !- Zone Cooling Design Supply Air Temperature {C}
  11.11,                                  !- Zone Cooling Design Supply Air Temperature Difference {deltaC}
  SupplyAirTemperature,                   !- Zone Heating Design Supply Air Temperature Input Method
  40,                                     !- Zone Heating Design Supply Air Temperature {C}
  11.11,                                  !- Zone Heating Design Supply Air Temperature Difference {deltaC}
  0.0085,                                 !- Zone Cooling Design Supply Air Humidity Ratio {kg-H2O/kg-air}
  0.008,                                  !- Zone Heating Design Supply Air Humidity Ratio {kg-H2O/kg-air}
  ,                                       !- Zone Heating Sizing Factor
  ,                                       !- Zone Cooling Sizing Factor
  DesignDay,                              !- Cooling Design Air Flow Method
  ,                                       !- Cooling Design Air Flow Rate {m3/s}
  ,                                       !- Cooling Minimum Air Flow per Zone Floor Area {m3/s-m2}
  ,                                       !- Cooling Minimum Air Flow {m3/s}
  ,                                       !- Cooling Minimum Air Flow Fraction
  DesignDay,                              !- Heating Design Air Flow Method
  ,                                       !- Heating Design Air Flow Rate {m3/s}
  ,                                       !- Heating Maximum Air Flow per Zone Floor Area {m3/s-m2}
  ,                                       !- Heating Maximum Air Flow {m3/s}
  ,                                       !- Heating Maximum Air Flow Fraction
  ,                                       !- Design Zone Air Distribution Effectiveness in Cooling Mode
  ,                                       !- Design Zone Air Distribution Effectiveness in Heating Mode
  No,                                     !- Account for Dedicated Outdoor Air System
  NeutralSupplyAir,                       !- Dedicated Outdoor Air System Control Strategy
  autosize,                               !- Dedicated Outdoor Air Low Setpoint Temperature for Design {C}
  autosize;                               !- Dedicated Outdoor Air High Setpoint Temperature for Design {C}

OS:ZoneHVAC:EquipmentList,
  {53fb6df6-8b1f-491a-9d09-1276dc200031}, !- Handle
  Zone HVAC Equipment List 1,             !- Name
  {dd9bb961-9bd8-43d9-b878-fe1a8a0d2575}, !- Thermal Zone
  {7a356cd0-34a4-4fce-a9c6-ebdc0dacb269}, !- Zone Equipment 1
  1,                                      !- Zone Equipment Cooling Sequence 1
  1;                                      !- Zone Equipment Heating or No-Load Sequence 1

! TrackingID:#[yrGiOo]
OS:Sizing:Zone,
  {370758b8-6784-495d-abb5-d4276d3f7bb8}, !- Handle
  {dd9bb961-9bd8-43d9-b878-fe1a8a0d2575}, !- Zone or ZoneList Name
  SupplyAirTemperature,                   !- Zone Cooling Design Supply Air Temperature Input Method
  14,                                     !- Zone Cooling Design Supply Air Temperature {C}
  11.11,                                  !- Zone Cooling Design Supply Air Temperature Difference {deltaC}
  SupplyAirTemperature,                   !- Zone Heating Design Supply Air Temperature Input Method
  40,                                     !- Zone Heating Design Supply Air Temperature {C}
  11.11,                                  !- Zone Heating Design Supply Air Temperature Difference {deltaC}
  0.0085,                                 !- Zone Cooling Design Supply Air Humidity Ratio {kg-H2O/kg-air}
  0.008,                                  !- Zone Heating Design Supply Air Humidity Ratio {kg-H2O/kg-air}
  ,                                       !- Zone Heating Sizing Factor
  ,                                       !- Zone Cooling Sizing Factor
  DesignDay,                              !- Cooling Design Air Flow Method
  ,                                       !- Cooling Design Air Flow Rate {m3/s}
  ,                                       !- Cooling Minimum Air Flow per Zone Floor Area {m3/s-m2}
  ,                                       !- Cooling Minimum Air Flow {m3/s}
  ,                                       !- Cooling Minimum Air Flow Fraction
  DesignDay,                              !- Heating Design Air Flow Method
  ,                                       !- Heating Design Air Flow Rate {m3/s}
  ,                                       !- Heating Maximum Air Flow per Zone Floor Area {m3/s-m2}
  ,                                       !- Heating Maximum Air Flow {m3/s}
  ,                                       !- Heating Maximum Air Flow Fraction
  ,                                       !- Design Zone Air Distribution Effectiveness in Cooling Mode
  ,                                       !- Design Zone Air Distribution Effectiveness in Heating Mode
  No,                                     !- Account for Dedicated Outdoor Air System
  NeutralSupplyAir,                       !- Dedicated Outdoor Air System Control Strategy
  autosize,                               !- Dedicated Outdoor Air Low Setpoint Temperature for Design {C}
  autosize;                               !- Dedicated Outdoor Air High Setpoint Temperature for Design {C}

! TrackingID:#[J3rlFu]
OS:Coil:Heating:Water,
  {12d9d018-9454-4b5c-a259-3ef13ca8843a}, !- Handle
  Coil Heating Water 1,                   !- Name
  {0bbdd3ef-18ff-4820-be86-e606b47d41c7}, !- Availability Schedule Name
  ,                                       !- U-Factor Times Area Value {W/K}
  ,                                       !- Maximum Water Flow Rate {m3/s}
  {203d00cb-23cd-443e-851a-1ef31f133333}, !- Water Inlet Node Name
  {d1fdd10f-00fd-4bca-a623-24481133145e}, !- Water Outlet Node Name
  ,                                       !- Air Inlet Node Name
  ,                                       !- Air Outlet Node Name
  ,                                       !- Performance Input Method
  ,                                       !- Rated Capacity {W}
  ,                                       !- Rated Inlet Water Temperature {C}
  ,                                       !- Rated Inlet Air Temperature {C}
  ,                                       !- Rated Outlet Water Temperature {C}
  ,                                       !- Rated Outlet Air Temperature {C}
  ;                                       !- Rated Ratio for Air and Water Convection

! TrackingID:#[SYtvOc]
OS:AirTerminal:SingleDuct:VAV:Reheat,
  {7a356cd0-34a4-4fce-a9c6-ebdc0dacb269}, !- Handle
  Air Terminal Single Duct VAV Reheat 1,  !- Name
  {0bbdd3ef-18ff-4820-be86-e606b47d41c7}, !- Availability Schedule Name
  {dcc6bba0-2b67-4245-8218-c840eadbf68f}, !- Air Inlet Node Name
  AutoSize,                               !- Maximum Air Flow Rate {m3/s}
  Constant,                               !- Zone Minimum Air Flow Input Method
  0.3,                                    !- Constant Minimum Air Flow Fraction
  0,                                      !- Fixed Minimum Air Flow Rate {m3/s}
  ,                                       !- Minimum Air Flow Fraction Schedule Name
  {12d9d018-9454-4b5c-a259-3ef13ca8843a}, !- Reheat Coil Name
  AutoSize,                               !- Maximum Hot Water or Steam Flow Rate {m3/s}
  0,                                      !- Minimum Hot Water or Steam Flow Rate {m3/s}
  {9a0e0884-3247-40a8-98d0-d35a17e2743f}, !- Air Outlet Node Name
  0.001,                                  !- Convergence Tolerance
  Normal,                                 !- Damper Heating Action
  AutoSize,                               !- Maximum Flow per Zone Floor Area During Reheat {m3/s-m2}
  AutoSize,                               !- Maximum Flow Fraction During Reheat
  35,                                     !- Maximum Reheat Air Temperature {C}
  No;                                     !- Control For Outdoor Air

OS:Node,
  {122c29ba-acc2-45b2-920a-c66af7e9cf20}, !- Handle
  Node 7,                                 !- Name
  {2fe88aba-7067-493a-ae64-fd7e26af29d2}, !- Inlet Port
  {ecb14a5e-e1a4-4254-8123-ed32d086766b}; !- Outlet Port

OS:Connection,
  {3572ff5d-f6b5-44f1-b4d3-7eabba1c4ff3}, !- Handle
  {40c7cdc7-a32f-4b53-ae65-a116a392dbf1}, !- Name
  {97e8859f-bc5b-41bf-89c1-fc3268b51b3b}, !- Source Object
  3,                                      !- Outlet Port
  {8fee1dff-f42f-439f-b2d2-51cde597e822}, !- Target Object
  3;                                      !- Inlet Port

OS:Connection,
  {2fe88aba-7067-493a-ae64-fd7e26af29d2}, !- Handle
  {a99d9a30-6bc1-4165-b0b5-db07a4513f8d}, !- Name
  {dd9bb961-9bd8-43d9-b878-fe1a8a0d2575}, !- Source Object
  12,                                     !- Outlet Port
  {122c29ba-acc2-45b2-920a-c66af7e9cf20}, !- Target Object
  2;                                      !- Inlet Port

OS:Connection,
  {ecb14a5e-e1a4-4254-8123-ed32d086766b}, !- Handle
  {da3a99bf-ffe4-4844-8e9b-7d8870d14688}, !- Name
  {122c29ba-acc2-45b2-920a-c66af7e9cf20}, !- Source Object
  3,                                      !- Outlet Port
  {afad8655-8569-41ea-b816-e0657dd11efe}, !- Target Object
  3;                                      !- Inlet Port

OS:Node,
  {6358412b-ff2b-465f-96ff-f93c05d48a33}, !- Handle
  Node 8,                                 !- Name
  {2b99bdcd-2e9a-49ec-b7df-4a500cb66880}, !- Inlet Port
  {dcc6bba0-2b67-4245-8218-c840eadbf68f}; !- Outlet Port

OS:Connection,
  {2b99bdcd-2e9a-49ec-b7df-4a500cb66880}, !- Handle
  {80342c11-9b50-4368-8479-fdf26b37bc91}, !- Name
  {2de2f1c2-ead2-4213-87b6-02ad473bb425}, !- Source Object
  3,                                      !- Outlet Port
  {6358412b-ff2b-465f-96ff-f93c05d48a33}, !- Target Object
  2;                                      !- Inlet Port

OS:Connection,
  {dcc6bba0-2b67-4245-8218-c840eadbf68f}, !- Handle
  {51387755-88d3-4559-8d1d-b0696d2ecc14}, !- Name
  {6358412b-ff2b-465f-96ff-f93c05d48a33}, !- Source Object
  3,                                      !- Outlet Port
  {7a356cd0-34a4-4fce-a9c6-ebdc0dacb269}, !- Target Object
  3;                                      !- Inlet Port

OS:Connection,
  {9a0e0884-3247-40a8-98d0-d35a17e2743f}, !- Handle
  {295c226c-4b84-478b-8c85-88c663285f4a}, !- Name
  {7a356cd0-34a4-4fce-a9c6-ebdc0dacb269}, !- Source Object
  12,                                     !- Outlet Port
  {97e8859f-bc5b-41bf-89c1-fc3268b51b3b}, !- Target Object
  2;                                      !- Inlet Port

! TrackingID:#[1vuMd2]
OS:ThermalZone,
  {d99a57d7-857e-42d3-8045-51412773c98e}, !- Handle
  zone_1,                                 !- Name
  ,                                       !- Multiplier
  ,                                       !- Ceiling Height {m}
  ,                                       !- Volume {m3}
  ,                                       !- Floor Area {m2}
  ,                                       !- Zone Inside Convection Algorithm
  ,                                       !- Zone Outside Convection Algorithm
  ,                                       !- Zone Conditioning Equipment List Name
  {1cb007a9-3253-45e7-af85-ee0d127d57d0}, !- Zone Air Inlet Port List
  {b6c0a3c9-7ea8-4791-b6b6-46ccbe8c5a44}, !- Zone Air Exhaust Port List
  {f7ceba43-9b77-492a-b7e1-3eff27416365}, !- Zone Air Node Name
  {ad098950-dfe7-4d6f-9a1a-69fbb78e9bbc}, !- Zone Return Air Node Name
  ,                                       !- Primary Daylighting Control Name
  ,                                       !- Fraction of Zone Controlled by Primary Daylighting Control
  ,                                       !- Secondary Daylighting Control Name
  ,                                       !- Fraction of Zone Controlled by Secondary Daylighting Control
  ,                                       !- Illuminance Map Name
  ,                                       !- Group Rendering Name
  ,                                       !- Thermostat Name
  No;                                     !- Use Ideal Air Loads

OS:Node,
  {e61b928e-54dd-45c4-9bb9-2ffc763e86c7}, !- Handle
  Node 9,                                 !- Name
  {f7ceba43-9b77-492a-b7e1-3eff27416365}, !- Inlet Port
  ;                                       !- Outlet Port

OS:Connection,
  {f7ceba43-9b77-492a-b7e1-3eff27416365}, !- Handle
  {391613f0-5247-4fa7-be6d-aea9b295d3bb}, !- Name
  {d99a57d7-857e-42d3-8045-51412773c98e}, !- Source Object
  11,                                     !- Outlet Port
  {e61b928e-54dd-45c4-9bb9-2ffc763e86c7}, !- Target Object
  2;                                      !- Inlet Port

OS:PortList,
  {1cb007a9-3253-45e7-af85-ee0d127d57d0}, !- Handle
  {1d84600c-5eef-40a2-85ae-c3e44af83a14}, !- Name
  {d99a57d7-857e-42d3-8045-51412773c98e}, !- HVAC Component
  {af8a014d-7066-42e7-92cd-10df9780a24b}; !- Port 1

OS:PortList,
  {b6c0a3c9-7ea8-4791-b6b6-46ccbe8c5a44}, !- Handle
  {ace17fb2-ab59-436f-ad84-df5609a70025}, !- Name
  {d99a57d7-857e-42d3-8045-51412773c98e}; !- HVAC Component

OS:Sizing:Zone,
  {2ef89743-2ca2-402b-b841-f0dc702ad3cf}, !- Handle
  {d99a57d7-857e-42d3-8045-51412773c98e}, !- Zone or ZoneList Name
  SupplyAirTemperature,                   !- Zone Cooling Design Supply Air Temperature Input Method
  14,                                     !- Zone Cooling Design Supply Air Temperature {C}
  11.11,                                  !- Zone Cooling Design Supply Air Temperature Difference {deltaC}
  SupplyAirTemperature,                   !- Zone Heating Design Supply Air Temperature Input Method
  40,                                     !- Zone Heating Design Supply Air Temperature {C}
  11.11,                                  !- Zone Heating Design Supply Air Temperature Difference {deltaC}
  0.0085,                                 !- Zone Cooling Design Supply Air Humidity Ratio {kg-H2O/kg-air}
  0.008,                                  !- Zone Heating Design Supply Air Humidity Ratio {kg-H2O/kg-air}
  ,                                       !- Zone Heating Sizing Factor
  ,                                       !- Zone Cooling Sizing Factor
  DesignDay,                              !- Cooling Design Air Flow Method
  ,                                       !- Cooling Design Air Flow Rate {m3/s}
  ,                                       !- Cooling Minimum Air Flow per Zone Floor Area {m3/s-m2}
  ,                                       !- Cooling Minimum Air Flow {m3/s}
  ,                                       !- Cooling Minimum Air Flow Fraction
  DesignDay,                              !- Heating Design Air Flow Method
  ,                                       !- Heating Design Air Flow Rate {m3/s}
  ,                                       !- Heating Maximum Air Flow per Zone Floor Area {m3/s-m2}
  ,                                       !- Heating Maximum Air Flow {m3/s}
  ,                                       !- Heating Maximum Air Flow Fraction
  ,                                       !- Design Zone Air Distribution Effectiveness in Cooling Mode
  ,                                       !- Design Zone Air Distribution Effectiveness in Heating Mode
  No,                                     !- Account for Dedicated Outdoor Air System
  NeutralSupplyAir,                       !- Dedicated Outdoor Air System Control Strategy
  autosize,                               !- Dedicated Outdoor Air Low Setpoint Temperature for Design {C}
  autosize;                               !- Dedicated Outdoor Air High Setpoint Temperature for Design {C}

OS:ZoneHVAC:EquipmentList,
  {65191542-4120-4ddc-8859-4195d89b7b51}, !- Handle
  Zone HVAC Equipment List 2,             !- Name
  {d99a57d7-857e-42d3-8045-51412773c98e}, !- Thermal Zone
  {e5ece794-7cc7-44c6-a952-e632fce1d3e0}, !- Zone Equipment 1
  1,                                      !- Zone Equipment Cooling Sequence 1