
OS:Version,
  {55bdf58e-698f-4d36-bef1-25e06e15d29c}, !- Handle
  2.4.0;                                  !- Version Identifier

! TrackingID:#[wvzSDO]
OS:AirLoopHVAC,
  {c92f8a20-8398-4d71-8ebd-834950ea98c5}, !- Handle
  Air Loop HVAC 1,                        !- Name
  ,                                       !- Controller List Name
  {b7c3be97-b28f-43dc-a6f0-5ad874855579}, !- Availability Schedule
  {161ab191-6f2c-4184-bbf2-d577abf86a76}, !- Availability Manager List Name
  AutoSize,                               !- Design Supply Air Flow Rate {m3/s}
  ,                                       !- Branch List Name
  ,                                       !- Connector List Name
  {9fe9a826-a36d-46b1-b287-bcea39f44741}, !- Supply Side Inlet Node Name
  {0998b63b-e5a0-48d4-864d-bd8254bbca1e}, !- Demand Side Outlet Node Name
  {29f33c77-3797-4294-96a8-4f8a8c4a1205}, !- Demand Side Inlet Node A
  {940c0faf-c959-44a2-a6d5-2a5cda6d2f2f}, !- Supply Side Outlet Node A
  ,                                       !- Demand Side Inlet Node B
  ,                                       !- Supply Side Outlet Node B
  ,                                       !- Return Air Bypass Flow Temperature Setpoint Schedule Name
  {417314bb-be48-4481-b3a4-6f14350c2b9f}, !- Demand Mixer Name
  {8197ff4b-5f67-4661-98ba-53ea5e2c24cb}, !- Demand Splitter A Name
  ,                                       !- Demand Splitter B Name
  ;                                       !- Supply Splitter Name

OS:Node,
  {a6d70a89-e314-45d5-b31f-2deece6ef6f7}, !- Handle
  Node 1,                                 !- Name
  {9fe9a826-a36d-46b1-b287-bcea39f44741}, !- Inlet Port
  {4140979a-90b1-46fc-bee6-f1c0a18231ec}; !- Outlet Port

OS:Node,
  {d3489482-f131-4f9b-84f2-974ad1e9e521}, !- Handle
  Node 2,                                 !- Name
  {2776a8a8-b83c-48f2-a5ca-0a787809f70b}, !- Inlet Port
  {940c0faf-c959-44a2-a6d5-2a5cda6d2f2f}; !- Outlet Port

OS:Connection,
  {9fe9a826-a36d-46b1-b287-bcea39f44741}, !- Handle
  {6e6cc538-c2c6-4e8c-acb1-9edbb46dfe51}, !- Name
  {c92f8a20-8398-4d71-8ebd-834950ea98c5}, !- Source Object
  8,                                      !- Outlet Port
  {a6d70a89-e314-45d5-b31f-2deece6ef6f7}, !- Target Object
  2;                                      !- Inlet Port

OS:Connection,
  {940c0faf-c959-44a2-a6d5-2a5cda6d2f2f}, !- Handle
  {ee808bac-4191-4ab3-b0fe-44673932ce2e}, !- Name
  {d3489482-f131-4f9b-84f2-974ad1e9e521}, !- Source Object
  3,                                      !- Outlet Port
  {c92f8a20-8398-4d71-8ebd-834950ea98c5}, !- Target Object
  11;                                     !- Inlet Port

OS:Node,
  {162a16d1-43e1-4553-b2b2-fbae41677176}, !- Handle
  Node 3,                                 !- Name
  {29f33c77-3797-4294-96a8-4f8a8c4a1205}, !- Inlet Port
  {3084ccee-991d-4566-81b3-7650961bd492}; !- Outlet Port

OS:Node,
  {84bcd508-5dc9-407e-aa88-a24239a2c015}, !- Handle
  Node 4,                                 !- Name
  {02786e4d-4292-4159-ac0a-b308cd7732d6}, !- Inlet Port
  {0998b63b-e5a0-48d4-864d-bd8254bbca1e}; !- Outlet Port

OS:Node,
  {50582d8c-05ac-4c81-bd40-7d1a5338fa1e}, !- Handle
  Node 5,                                 !- Name
  {b42420b1-9a9b-4656-a7d6-0dd5965787a8}, !- Inlet Port
  {57459ac9-1b57-4277-b5ee-a435c93158bf}; !- Outlet Port

OS:Connection,
  {29f33c77-3797-4294-96a8-4f8a8c4a1205}, !- Handle
  {22b0bed5-5d78-46a1-a811-448e944d8986}, !- Name
  {c92f8a20-8398-4d71-8ebd-834950ea98c5}, !- Source Object
  10,                                     !- Outlet Port
  {162a16d1-43e1-4553-b2b2-fbae41677176}, !- Target Object
  2;                                      !- Inlet Port

OS:Connection,
  {0998b63b-e5a0-48d4-864d-bd8254bbca1e}, !- Handle
  {c3fa37c4-e711-42d3-9230-b218847c00f1}, !- Name
  {84bcd508-5dc9-407e-aa88-a24239a2c015}, !- Source Object
  3,                                      !- Outlet Port
  {c92f8a20-8398-4d71-8ebd-834950ea98c5}, !- Target Object
  9;                                      !- Inlet Port

OS:AirLoopHVAC:ZoneSplitter,
  {8197ff4b-5f67-4661-98ba-53ea5e2c24cb}, !- Handle
  Air Loop HVAC Zone Splitter 1,          !- Name
  {3084ccee-991d-4566-81b3-7650961bd492}, !- Inlet Node Name
  {b42420b1-9a9b-4656-a7d6-0dd5965787a8}; !- Outlet Node Name 1

OS:AirLoopHVAC:ZoneMixer,
  {417314bb-be48-4481-b3a4-6f14350c2b9f}, !- Handle
  Air Loop HVAC Zone Mixer 1,             !- Name
  {02786e4d-4292-4159-ac0a-b308cd7732d6}, !- Outlet Node Name
  {57459ac9-1b57-4277-b5ee-a435c93158bf}; !- Inlet Node Name 1

OS:Connection,
  {3084ccee-991d-4566-81b3-7650961bd492}, !- Handle
  {8714f161-58fe-4b37-b0d4-bf2262862c50}, !- Name
  {162a16d1-43e1-4553-b2b2-fbae41677176}, !- Source Object
  3,                                      !- Outlet Port
  {8197ff4b-5f67-4661-98ba-53ea5e2c24cb}, !- Target Object
  2;                                      !- Inlet Port

OS:Connection,
  {b42420b1-9a9b-4656-a7d6-0dd5965787a8}, !- Handle
  {b7dacad6-435c-4b13-aa47-cc60c7835fce}, !- Name
  {8197ff4b-5f67-4661-98ba-53ea5e2c24cb}, !- Source Object
  3,                                      !- Outlet Port
  {50582d8c-05ac-4c81-bd40-7d1a5338fa1e}, !- Target Object
  2;                                      !- Inlet Port

OS:Connection,
  {57459ac9-1b57-4277-b5ee-a435c93158bf}, !- Handle
  {0579bc39-e1ad-44fc-9b88-15421f28062c}, !- Name
  {50582d8c-05ac-4c81-bd40-7d1a5338fa1e}, !- Source Object
  3,                                      !- Outlet Port
  {417314bb-be48-4481-b3a4-6f14350c2b9f}, !- Target Object
  3;                                      !- Inlet Port

OS:Connection,
  {02786e4d-4292-4159-ac0a-b308cd7732d6}, !- Handle
  {0cf0e9d7-31d6-45df-9d3a-5076c611e0c2}, !- Name
  {417314bb-be48-4481-b3a4-6f14350c2b9f}, !- Source Object
  2,                                      !- Outlet Port
  {84bcd508-5dc9-407e-aa88-a24239a2c015}, !- Target Object
  2;                                      !- Inlet Port

OS:Sizing:System,
  {192d3f2c-a5bb-43c9-8db1-bfd1238582e3}, !- Handle
  {c92f8a20-8398-4d71-8ebd-834950ea98c5}, !- AirLoop Name
  Sensible,                               !- Type of Load to Size On
  Autosize,                               !- Design Outdoor Air Flow Rate {m3/s}
  0.3,                                    !- Minimum System Air Flow Ratio
  7,                                      !- Preheat Design Temperature {C}
  0.008,                                  !- Preheat Design Humidity Ratio {kg-H2O/kg-Air}
  12.8,                                   !- Precool Design Temperature {C}
  0.008,                                  !- Precool Design Humidity Ratio {kg-H2O/kg-Air}
  12.8,                                   !- Central Cooling Design Supply Air Temperature {C}
  16.7,                                   !- Central Heating Design Supply Air Temperature {C}
  NonCoincident,                          !- Sizing Option
  Yes,                                    !- 100% Outdoor Air in Cooling
  Yes,                                    !- 100% Outdoor Air in Heating
  0.0085,                                 !- Central Cooling Design Supply Air Humidity Ratio {kg-H2O/kg-Air}
  0.008,                                  !- Central Heating Design Supply Air Humidity Ratio {kg-H2O/kg-Air}
  DesignDay,                              !- Cooling Design Air Flow Method
  0,                                      !- Cooling Design Air Flow Rate {m3/s}
  DesignDay,                              !- Heating Design Air Flow Method
  0,                                      !- Heating Design Air Flow Rate {m3/s}
  ZoneSum,                                !- System Outdoor Air Method
  1,                                      !- Zone Maximum Outdoor Air Fraction {dimensionless}
  0.0099676501,                           !- Cooling Supply Air Flow Rate Per Floor Area {m3/s-m2}
  1,                                      !- Cooling Fraction of Autosized Cooling Supply Air Flow Rate
  3.9475456e-005,                         !- Cooling Supply Air Flow Rate Per Unit Cooling Capacity {m3/s-W}
  0.0099676501,                           !- Heating Supply Air Flow Rate Per Floor Area {m3/s-m2}
  1,                                      !- Heating Fraction of Autosized Heating Supply Air Flow Rate
  1,                                      !- Heating Fraction of Autosized Cooling Supply Air Flow Rate
  3.1588213e-005,                         !- Heating Supply Air Flow Rate Per Unit Heating Capacity {m3/s-W}
  CoolingDesignCapacity,                  !- Cooling Design Capacity Method
  autosize,                               !- Cooling Design Capacity {W}
  234.7,                                  !- Cooling Design Capacity Per Floor Area {W/m2}
  1,                                      !- Fraction of Autosized Cooling Design Capacity
  HeatingDesignCapacity,                  !- Heating Design Capacity Method
  autosize,                               !- Heating Design Capacity {W}
  157,                                    !- Heating Design Capacity Per Floor Area {W/m2}
  1,                                      !- Fraction of Autosized Heating Design Capacity
  OnOff;                                  !- Central Cooling Capacity Control Method

OS:Schedule:Constant,
  {b7c3be97-b28f-43dc-a6f0-5ad874855579}, !- Handle
  Always On Discrete,                     !- Name
  {47366f6d-d4ca-4232-96f5-c461f193d46c}, !- Schedule Type Limits Name
  1;                                      !- Value

OS:ScheduleTypeLimits,
  {47366f6d-d4ca-4232-96f5-c461f193d46c}, !- Handle
  OnOff,                                  !- Name
  0,                                      !- Lower Limit Value
  1,                                      !- Upper Limit Value
  Discrete,                               !- Numeric Type
  Availability;                           !- Unit Type

OS:AvailabilityManagerAssignmentList,
  {161ab191-6f2c-4184-bbf2-d577abf86a76}, !- Handle
  Air Loop HVAC 1 AvailabilityManagerAssignmentList; !- Name

! TrackingID:#[nBtB3a]
OS:Fan:ConstantVolume,
  {4d8b8472-059b-4a8a-a043-19359f7f9ebe}, !- Handle
  Fan Constant Volume 1,                  !- Name
  {b7c3be97-b28f-43dc-a6f0-5ad874855579}, !- Availability Schedule Name
  ,                                       !- Fan Efficiency
  ,                                       !- Pressure Rise {Pa}
  AutoSize,                               !- Maximum Flow Rate {m3/s}
  ,                                       !- Motor Efficiency
  ,                                       !- Motor In Airstream Fraction
  {4140979a-90b1-46fc-bee6-f1c0a18231ec}, !- Air Inlet Node Name
  {2776a8a8-b83c-48f2-a5ca-0a787809f70b}, !- Air Outlet Node Name
  ;                                       !- End-Use Subcategory

OS:Connection,
  {4140979a-90b1-46fc-bee6-f1c0a18231ec}, !- Handle
  {159db2d4-d58c-44e7-ab8a-53e70f3eb0e0}, !- Name
  {a6d70a89-e314-45d5-b31f-2deece6ef6f7}, !- Source Object
  3,                                      !- Outlet Port
  {4d8b8472-059b-4a8a-a043-19359f7f9ebe}, !- Target Object
  8;                                      !- Inlet Port

OS:Connection,
  {2776a8a8-b83c-48f2-a5ca-0a787809f70b}, !- Handle
  {d0d480f6-5506-40a5-bc55-20118c1bd8c2}, !- Name
  {4d8b8472-059b-4a8a-a043-19359f7f9ebe}, !- Source Object
  9,                                      !- Outlet Port
  {d3489482-f131-4f9b-84f2-974ad1e9e521}, !- Target Object
  2;                                      !- Inlet Port

! TrackingID:#[32dRTA]
OS:SetpointManager:OutdoorAirReset,
  {3083b80b-8365-4109-a3d0-2097cfa6f413}, !- Handle
  Setpoint Manager Outdoor Air Reset 1,   !- Name
  Temperature,                            !- Control Variable
  80,                                     !- Setpoint at Outdoor Low Temperature {C}
  8,                                      !- Outdoor Low Temperature {C}
  51,                                     !- Setpoint at Outdoor High Temperature {C}
  32,                                     !- Outdoor High Temperature {C}
  {a6d70a89-e314-45d5-b31f-2deece6ef6f7}, !- Setpoint Node or NodeList Name
  ,                                       !- Schedule Name
  ,                                       !- Setpoint at Outdoor Low Temperature 2 {C}
  ,                                       !- Outdoor Low Temperature 2 {C}
  ,                                       !- Setpoint at Outdoor High Temperature 2 {C}
  ;                                       !- Outdoor High Temperature 2 {C}

