
OS:Version,
  {1af1846f-e9e6-46b3-8a18-8493adbb7833}, !- Handle
  2.4.0;                                  !- Version Identifier

OS:AirLoopHVAC,
  {a9214e50-40db-4d7a-b9b1-28d154be0528}, !- Handle
  Air Loop HVAC 1,                        !- Name
  ,                                       !- Controller List Name
  {0b699979-58de-4db4-b3c9-713a0b775fa1}, !- Availability Schedule
  {8de14e44-44dd-460b-aca0-875993efc2ff}, !- Availability Manager List Name
  AutoSize,                               !- Design Supply Air Flow Rate {m3/s}
  ,                                       !- Branch List Name
  ,                                       !- Connector List Name
  {f93e3881-3f67-479a-b807-49b1e1908759}, !- Supply Side Inlet Node Name
  {11756b4f-1d42-4c34-a471-1b6b481b4775}, !- Demand Side Outlet Node Name
  {d43546be-3eae-4775-bf06-289e960a6ebe}, !- Demand Side Inlet Node A
  {19bac317-99e0-4c37-b3f0-9daec01bdbd1}, !- Supply Side Outlet Node A
  ,                                       !- Demand Side Inlet Node B
  ,                                       !- Supply Side Outlet Node B
  ,                                       !- Return Air Bypass Flow Temperature Setpoint Schedule Name
  {aa829d9f-e7a1-4a95-8411-62e37c28a5e6}, !- Demand Mixer Name
  {b6fdebb5-0855-462c-8790-f21fc676a0b2}, !- Demand Splitter A Name
  ,                                       !- Demand Splitter B Name
  ;                                       !- Supply Splitter Name

OS:Node,
  {582bf596-9a9d-4961-8b03-c9b10b88bf37}, !- Handle
  Node 1,                                 !- Name
  {f93e3881-3f67-479a-b807-49b1e1908759}, !- Inlet Port
  {6128a86c-dada-481c-b55e-d051e90ed1eb}; !- Outlet Port

OS:Node,
  {f1e541d4-b01c-4e1b-89f1-d2a50cc017f4}, !- Handle
  Node 2,                                 !- Name
  {a8de58eb-fe8c-4436-ac72-234290d4dcb6}, !- Inlet Port
  {19bac317-99e0-4c37-b3f0-9daec01bdbd1}; !- Outlet Port

OS:Connection,
  {f93e3881-3f67-479a-b807-49b1e1908759}, !- Handle
  {5b447581-be7f-4a3f-bda1-2e2ffae41d3e}, !- Name
  {a9214e50-40db-4d7a-b9b1-28d154be0528}, !- Source Object
  8,                                      !- Outlet Port
  {582bf596-9a9d-4961-8b03-c9b10b88bf37}, !- Target Object
  2;                                      !- Inlet Port

OS:Connection,
  {19bac317-99e0-4c37-b3f0-9daec01bdbd1}, !- Handle
  {b92b14d6-03a1-44b6-a6ab-516aed8c71a1}, !- Name
  {f1e541d4-b01c-4e1b-89f1-d2a50cc017f4}, !- Source Object
  3,                                      !- Outlet Port
  {a9214e50-40db-4d7a-b9b1-28d154be0528}, !- Target Object
  11;                                     !- Inlet Port

OS:Node,
  {387a335a-3f06-4413-bbe9-22dcaaaa2a5e}, !- Handle
  Node 3,                                 !- Name
  {d43546be-3eae-4775-bf06-289e960a6ebe}, !- Inlet Port
  {111ebd01-6855-482e-a33b-fec335ff3053}; !- Outlet Port

OS:Node,
  {10e1e3a2-13fb-45fb-be46-546e17108a49}, !- Handle
  Node 4,                                 !- Name
  {b96dd4cf-616d-4cd7-b526-c58fa6ae53dc}, !- Inlet Port
  {11756b4f-1d42-4c34-a471-1b6b481b4775}; !- Outlet Port

OS:Node,
  {aa080aaf-83a6-4a68-9d3f-f25ed775582e}, !- Handle
  Node 5,                                 !- Name
  {fdb420a9-8c4e-45a3-b940-1b8295035a72}, !- Inlet Port
  {bcc0b8bf-5ade-4460-ad15-b8b579d99c1a}; !- Outlet Port

OS:Connection,
  {d43546be-3eae-4775-bf06-289e960a6ebe}, !- Handle
  {793c8fda-db23-436f-8f71-012fa414647c}, !- Name
  {a9214e50-40db-4d7a-b9b1-28d154be0528}, !- Source Object
  10,                                     !- Outlet Port
  {387a335a-3f06-4413-bbe9-22dcaaaa2a5e}, !- Target Object
  2;                                      !- Inlet Port

OS:Connection,
  {11756b4f-1d42-4c34-a471-1b6b481b4775}, !- Handle
  {03608776-9a3c-4c49-9e34-e35a7067fb05}, !- Name
  {10e1e3a2-13fb-45fb-be46-546e17108a49}, !- Source Object
  3,                                      !- Outlet Port
  {a9214e50-40db-4d7a-b9b1-28d154be0528}, !- Target Object
  9;                                      !- Inlet Port

OS:AirLoopHVAC:ZoneSplitter,
  {b6fdebb5-0855-462c-8790-f21fc676a0b2}, !- Handle
  Air Loop HVAC Zone Splitter 1,          !- Name
  {111ebd01-6855-482e-a33b-fec335ff3053}, !- Inlet Node Name
  {fdb420a9-8c4e-45a3-b940-1b8295035a72}; !- Outlet Node Name 1

OS:AirLoopHVAC:ZoneMixer,
  {aa829d9f-e7a1-4a95-8411-62e37c28a5e6}, !- Handle
  Air Loop HVAC Zone Mixer 1,             !- Name
  {b96dd4cf-616d-4cd7-b526-c58fa6ae53dc}, !- Outlet Node Name
  {bcc0b8bf-5ade-4460-ad15-b8b579d99c1a}; !- Inlet Node Name 1

OS:Connection,
  {111ebd01-6855-482e-a33b-fec335ff3053}, !- Handle
  {5d6b3d2a-cfba-43c1-9549-2e085a8c4073}, !- Name
  {387a335a-3f06-4413-bbe9-22dcaaaa2a5e}, !- Source Object
  3,                                      !- Outlet Port
  {b6fdebb5-0855-462c-8790-f21fc676a0b2}, !- Target Object
  2;                                      !- Inlet Port

OS:Connection,
  {fdb420a9-8c4e-45a3-b940-1b8295035a72}, !- Handle
  {538b8f78-d7af-47d8-9ec8-e884b866273b}, !- Name
  {b6fdebb5-0855-462c-8790-f21fc676a0b2}, !- Source Object
  3,                                      !- Outlet Port
  {aa080aaf-83a6-4a68-9d3f-f25ed775582e}, !- Target Object
  2;                                      !- Inlet Port

OS:Connection,
  {bcc0b8bf-5ade-4460-ad15-b8b579d99c1a}, !- Handle
  {132f7f62-af33-449c-acee-900e4694b47a}, !- Name
  {aa080aaf-83a6-4a68-9d3f-f25ed775582e}, !- Source Object
  3,                                      !- Outlet Port
  {aa829d9f-e7a1-4a95-8411-62e37c28a5e6}, !- Target Object
  3;                                      !- Inlet Port

OS:Connection,
  {b96dd4cf-616d-4cd7-b526-c58fa6ae53dc}, !- Handle
  {cccf5cd1-b9fc-4f06-89a8-10c090b03bb6}, !- Name
  {aa829d9f-e7a1-4a95-8411-62e37c28a5e6}, !- Source Object
  2,                                      !- Outlet Port
  {10e1e3a2-13fb-45fb-be46-546e17108a49}, !- Target Object
  2;                                      !- Inlet Port

OS:Sizing:System,
  {bf98edbf-c00a-4e2e-97a6-134752c404d0}, !- Handle
  {a9214e50-40db-4d7a-b9b1-28d154be0528}, !- AirLoop Name
  Sensible,                               !- Type of Load to Size On
  Autosize,                               !- Design Outdoor Air Flow Rate {m3/s}
  0.3,                                    !- Minimum System Air Flow Ratio
  7,                                      !- Preheat Design Temperature {C}
  0.008,                                  !- Preheat Design Humidity Ratio {kg-H2O/kg-Air}
  12.8,                                   !- Precool Design Temperature {C}
  0.008,                                  !- Precool Design Humidity Ratio {kg-H2O/kg-Air}
  12.8,                                   !- Central Cooling Design Supply Air Temperature {C}
  16.7,                                   !- Central Heating Design Supply Air Temperature {C}
  NonCoincident,                          !- Sizing Option
  Yes,                                    !- 100% Outdoor Air in Cooling
  Yes,                                    !- 100% Outdoor Air in Heating
  0.0085,                                 !- Central Cooling Design Supply Air Humidity Ratio {kg-H2O/kg-Air}
  0.008,                                  !- Central Heating Design Supply Air Humidity Ratio {kg-H2O/kg-Air}
  DesignDay,                              !- Cooling Design Air Flow Method
  0,                                      !- Cooling Design Air Flow Rate {m3/s}
  DesignDay,                              !- Heating Design Air Flow Method
  0,                                      !- Heating Design Air Flow Rate {m3/s}
  ZoneSum,                                !- System Outdoor Air Method
  1,                                      !- Zone Maximum Outdoor Air Fraction {dimensionless}
  0.0099676501,                           !- Cooling Supply Air Flow Rate Per Floor Area {m3/s-m2}
  1,                                      !- Cooling Fraction of Autosized Cooling Supply Air Flow Rate
  3.9475456e-005,                         !- Cooling Supply Air Flow Rate Per Unit Cooling Capacity {m3/s-W}
  0.0099676501,                           !- Heating Supply Air Flow Rate Per Floor Area {m3/s-m2}
  1,                                      !- Heating Fraction of Autosized Heating Supply Air Flow Rate
  1,                                      !- Heating Fraction of Autosized Cooling Supply Air Flow Rate
  3.1588213e-005,                         !- Heating Supply Air Flow Rate Per Unit Heating Capacity {m3/s-W}
  CoolingDesignCapacity,                  !- Cooling Design Capacity Method
  autosize,                               !- Cooling Design Capacity {W}
  234.7,                                  !- Cooling Design Capacity Per Floor Area {W/m2}
  1,                                      !- Fraction of Autosized Cooling Design Capacity
  HeatingDesignCapacity,                  !- Heating Design Capacity Method
  autosize,                               !- Heating Design Capacity {W}
  157,                                    !- Heating Design Capacity Per Floor Area {W/m2}
  1,                                      !- Fraction of Autosized Heating Design Capacity
  OnOff;                                  !- Central Cooling Capacity Control Method

OS:Schedule:Constant,
  {0b699979-58de-4db4-b3c9-713a0b775fa1}, !- Handle
  Always On Discrete,                     !- Name
  {d3dc19ae-1af5-465b-af7f-2e5946f16938}, !- Schedule Type Limits Name
  1;                                      !- Value

OS:ScheduleTypeLimits,
  {d3dc19ae-1af5-465b-af7f-2e5946f16938}, !- Handle
  OnOff,                                  !- Name
  0,                                      !- Lower Limit Value
  1,                                      !- Upper Limit Value
  Discrete,                               !- Numeric Type
  Availability;                           !- Unit Type

OS:AvailabilityManagerAssignmentList,
  {8de14e44-44dd-460b-aca0-875993efc2ff}, !- Handle
  Air Loop HVAC 1 AvailabilityManagerAssignmentList; !- Name

OS:Coil:Heating:Water,
  {f5ac8bf8-f652-43b9-ae23-40ffdd438bdf}, !- Handle
  Coil Heating Water 1,                   !- Name
  {0b699979-58de-4db4-b3c9-713a0b775fa1}, !- Availability Schedule Name
  ,                                       !- U-Factor Times Area Value {W/K}
  ,                                       !- Maximum Water Flow Rate {m3/s}
  ,                                       !- Water Inlet Node Name
  ,                                       !- Water Outlet Node Name
  {6128a86c-dada-481c-b55e-d051e90ed1eb}, !- Air Inlet Node Name
  {701cac15-558f-4c94-95a9-6699cd875980}, !- Air Outlet Node Name
  ,                                       !- Performance Input Method
  ,                                       !- Rated Capacity {W}
  80,                                     !- Rated Inlet Water Temperature {C}
  ,                                       !- Rated Inlet Air Temperature {C}
  ,                                       !- Rated Outlet Water Temperature {C}
  ,                                       !- Rated Outlet Air Temperature {C}
  ;                                       !- Rated Ratio for Air and Water Convection

OS:Connection,
  {6128a86c-dada-481c-b55e-d051e90ed1eb}, !- Handle
  {88504af4-b19e-4a51-bdcd-db9587932e70}, !- Name
  {582bf596-9a9d-4961-8b03-c9b10b88bf37}, !- Source Object
  3,                                      !- Outlet Port
  {f5ac8bf8-f652-43b9-ae23-40ffdd438bdf}, !- Target Object
  7;                                      !- Inlet Port

OS:Fan:ConstantVolume,
  {0f54c6f3-a5c5-4716-a201-833f6ccfa1f8}, !- Handle
  Fan Constant Volume 1,                  !- Name
  {0b699979-58de-4db4-b3c9-713a0b775fa1}, !- Availability Schedule Name
  0.5,                                    !- Fan Efficiency
  100,                                    !- Pressure Rise {Pa}
  AutoSize,                               !- Maximum Flow Rate {m3/s}
  0.8,                                    !- Motor Efficiency
  ,                                       !- Motor In Airstream Fraction
  {416105eb-9435-4311-9282-e1d75a08bf31}, !- Air Inlet Node Name
  {a8de58eb-fe8c-4436-ac72-234290d4dcb6}, !- Air Outlet Node Name
  ;                                       !- End-Use Subcategory

OS:Node,
  {9758eb7c-ef55-48c5-ae43-0a64b01a704a}, !- Handle
  Node 6,                                 !- Name
  {701cac15-558f-4c94-95a9-6699cd875980}, !- Inlet Port
  {416105eb-9435-4311-9282-e1d75a08bf31}; !- Outlet Port

OS:Connection,
  {701cac15-558f-4c94-95a9-6699cd875980}, !- Handle
  {dbd3a6cf-ae56-43cb-8c9e-ba0fee44487f}, !- Name
  {f5ac8bf8-f652-43b9-ae23-40ffdd438bdf}, !- Source Object
  8,                                      !- Outlet Port
  {9758eb7c-ef55-48c5-ae43-0a64b01a704a}, !- Target Object
  2;                                      !- Inlet Port

OS:Connection,
  {416105eb-9435-4311-9282-e1d75a08bf31}, !- Handle
  {e7617e0d-893b-4eaa-98ad-d7f63666e16d}, !- Name
  {9758eb7c-ef55-48c5-ae43-0a64b01a704a}, !- Source Object
  3,                                      !- Outlet Port
  {0f54c6f3-a5c5-4716-a201-833f6ccfa1f8}, !- Target Object
  8;                                      !- Inlet Port

OS:Connection,
  {a8de58eb-fe8c-4436-ac72-234290d4dcb6}, !- Handle
  {5e493873-3119-474c-8f08-537042ddb901}, !- Name
  {0f54c6f3-a5c5-4716-a201-833f6ccfa1f8}, !- Source Object
  9,                                      !- Outlet Port
  {f1e541d4-b01c-4e1b-89f1-d2a50cc017f4}, !- Target Object
  2;                                      !- Inlet Port

