
OS:Version,
  {77f1c75f-6985-437f-a138-55e4ce0e79ca}, !- Handle
  2.4.0;                                  !- Version Identifier

! TrackingID:#[dX02Aq]
OS:AirLoopHVAC,
  {24b1292b-941b-44c5-9852-6d69fbd0ca64}, !- Handle
  Air Loop HVAC 1,                        !- Name
  ,                                       !- Controller List Name
  {f8f3c556-6640-4fe4-8bc0-3b758bd97cdc}, !- Availability Schedule
  {550e7a6b-ee16-4127-8455-b9a8f2201421}, !- Availability Manager List Name
  AutoSize,                               !- Design Supply Air Flow Rate {m3/s}
  ,                                       !- Branch List Name
  ,                                       !- Connector List Name
  {cbed03c6-0b13-4a08-a4d0-0cdfc3973d38}, !- Supply Side Inlet Node Name
  {1dac7913-08c8-4a24-a86c-9031a318d37f}, !- Demand Side Outlet Node Name
  {052bfa39-ba5e-469f-8da3-2d13a9374ade}, !- Demand Side Inlet Node A
  {3543ef18-9798-4828-899a-2e9d6a613283}, !- Supply Side Outlet Node A
  ,                                       !- Demand Side Inlet Node B
  ,                                       !- Supply Side Outlet Node B
  ,                                       !- Return Air Bypass Flow Temperature Setpoint Schedule Name
  {a44ad03e-39d7-4f6f-a72a-9a56afdd4cd1}, !- Demand Mixer Name
  {47d1d0f1-acf3-44e7-82ce-9b81005427b6}, !- Demand Splitter A Name
  ,                                       !- Demand Splitter B Name
  ;                                       !- Supply Splitter Name

OS:Node,
  {a36b27cc-3606-45d3-a967-de9ce5b5a440}, !- Handle
  Node 1,                                 !- Name
  {cbed03c6-0b13-4a08-a4d0-0cdfc3973d38}, !- Inlet Port
  {88f20493-8021-4c57-807e-84e64a38bf12}; !- Outlet Port

OS:Node,
  {08d64d05-7a66-4369-9245-9550abe43958}, !- Handle
  Node 2,                                 !- Name
  {49546e30-100c-48fc-b9ec-85bf163fd362}, !- Inlet Port
  {3543ef18-9798-4828-899a-2e9d6a613283}; !- Outlet Port

OS:Connection,
  {cbed03c6-0b13-4a08-a4d0-0cdfc3973d38}, !- Handle
  {e603244b-e6d1-4d77-b4b1-f43138ab91e6}, !- Name
  {24b1292b-941b-44c5-9852-6d69fbd0ca64}, !- Source Object
  8,                                      !- Outlet Port
  {a36b27cc-3606-45d3-a967-de9ce5b5a440}, !- Target Object
  2;                                      !- Inlet Port

OS:Connection,
  {3543ef18-9798-4828-899a-2e9d6a613283}, !- Handle
  {2c18504f-2a78-4ed8-8225-46326857d645}, !- Name
  {08d64d05-7a66-4369-9245-9550abe43958}, !- Source Object
  3,                                      !- Outlet Port
  {24b1292b-941b-44c5-9852-6d69fbd0ca64}, !- Target Object
  11;                                     !- Inlet Port

OS:Node,
  {5dd92bbb-46f1-4f3d-809b-7d5b7e89e946}, !- Handle
  Node 3,                                 !- Name
  {052bfa39-ba5e-469f-8da3-2d13a9374ade}, !- Inlet Port
  {070e0b4d-4bde-4e93-bbad-0e50c2c99f0f}; !- Outlet Port

OS:Node,
  {cd32b002-e480-43a6-87e1-171de8878402}, !- Handle
  Node 4,                                 !- Name
  {bb907901-a4c4-4d72-959b-dbffb78a9f84}, !- Inlet Port
  {1dac7913-08c8-4a24-a86c-9031a318d37f}; !- Outlet Port

OS:Node,
  {8d7f4650-378f-40a2-9aef-fd9b6e095f92}, !- Handle
  Node 5,                                 !- Name
  {6bbdd1aa-221c-412f-9291-efea92f07625}, !- Inlet Port
  {069e7e6d-1fba-4fb3-9fce-f2aa3405b211}; !- Outlet Port

OS:Connection,
  {052bfa39-ba5e-469f-8da3-2d13a9374ade}, !- Handle
  {6d4a723c-5989-4f87-811d-083cca192328}, !- Name
  {24b1292b-941b-44c5-9852-6d69fbd0ca64}, !- Source Object
  10,                                     !- Outlet Port
  {5dd92bbb-46f1-4f3d-809b-7d5b7e89e946}, !- Target Object
  2;                                      !- Inlet Port

OS:Connection,
  {1dac7913-08c8-4a24-a86c-9031a318d37f}, !- Handle
  {0e9657b6-7ad4-49eb-8a75-ac4f327669a3}, !- Name
  {cd32b002-e480-43a6-87e1-171de8878402}, !- Source Object
  3,                                      !- Outlet Port
  {24b1292b-941b-44c5-9852-6d69fbd0ca64}, !- Target Object
  9;                                      !- Inlet Port

OS:AirLoopHVAC:ZoneSplitter,
  {47d1d0f1-acf3-44e7-82ce-9b81005427b6}, !- Handle
  Air Loop HVAC Zone Splitter 1,          !- Name
  {070e0b4d-4bde-4e93-bbad-0e50c2c99f0f}, !- Inlet Node Name
  {0c699bcb-92e3-4f29-a04c-7f7de8bac48d}, !- Outlet Node Name 1
  {a9857ae4-1ed4-4510-821d-5c846b149af2}; !- Outlet Node Name 2

OS:AirLoopHVAC:ZoneMixer,
  {a44ad03e-39d7-4f6f-a72a-9a56afdd4cd1}, !- Handle
  Air Loop HVAC Zone Mixer 1,             !- Name
  {bb907901-a4c4-4d72-959b-dbffb78a9f84}, !- Outlet Node Name
  {fd036e9d-7f92-4d94-9f2a-ca5ef1ba1321}, !- Inlet Node Name 1
  {b0d7fc21-868f-4dbb-a4c4-2e91cbe1c501}; !- Inlet Node Name 2

OS:Connection,
  {070e0b4d-4bde-4e93-bbad-0e50c2c99f0f}, !- Handle
  {ac021b70-cad1-466d-94a8-8a216315973f}, !- Name
  {5dd92bbb-46f1-4f3d-809b-7d5b7e89e946}, !- Source Object
  3,                                      !- Outlet Port
  {47d1d0f1-acf3-44e7-82ce-9b81005427b6}, !- Target Object
  2;                                      !- Inlet Port

OS:Connection,
  {bb907901-a4c4-4d72-959b-dbffb78a9f84}, !- Handle
  {106685c4-94c7-4d7e-91e7-fe4b1fd1a8a9}, !- Name
  {a44ad03e-39d7-4f6f-a72a-9a56afdd4cd1}, !- Source Object
  2,                                      !- Outlet Port
  {cd32b002-e480-43a6-87e1-171de8878402}, !- Target Object
  2;                                      !- Inlet Port

OS:Sizing:System,
  {0c4afce4-70d5-44e5-8b10-df0eb26815c3}, !- Handle
  {24b1292b-941b-44c5-9852-6d69fbd0ca64}, !- AirLoop Name
  Sensible,                               !- Type of Load to Size On
  Autosize,                               !- Design Outdoor Air Flow Rate {m3/s}
  0.3,                                    !- Minimum System Air Flow Ratio
  7,                                      !- Preheat Design Temperature {C}
  0.008,                                  !- Preheat Design Humidity Ratio {kg-H2O/kg-Air}
  12.8,                                   !- Precool Design Temperature {C}
  0.008,                                  !- Precool Design Humidity Ratio {kg-H2O/kg-Air}
  12.8,                                   !- Central Cooling Design Supply Air Temperature {C}
  16.7,                                   !- Central Heating Design Supply Air Temperature {C}
  NonCoincident,                          !- Sizing Option
  Yes,                                    !- 100% Outdoor Air in Cooling
  Yes,                                    !- 100% Outdoor Air in Heating
  0.0085,                                 !- Central Cooling Design Supply Air Humidity Ratio {kg-H2O/kg-Air}
  0.008,                                  !- Central Heating Design Supply Air Humidity Ratio {kg-H2O/kg-Air}
  DesignDay,                              !- Cooling Design Air Flow Method
  0,                                      !- Cooling Design Air Flow Rate {m3/s}
  DesignDay,                              !- Heating Design Air Flow Method
  0,                                      !- Heating Design Air Flow Rate {m3/s}
  ZoneSum,                                !- System Outdoor Air Method
  1,                                      !- Zone Maximum Outdoor Air Fraction {dimensionless}
  0.0099676501,                           !- Cooling Supply Air Flow Rate Per Floor Area {m3/s-m2}
  1,                                      !- Cooling Fraction of Autosized Cooling Supply Air Flow Rate
  3.9475456e-005,                         !- Cooling Supply Air Flow Rate Per Unit Cooling Capacity {m3/s-W}
  0.0099676501,                           !- Heating Supply Air Flow Rate Per Floor Area {m3/s-m2}
  1,                                      !- Heating Fraction of Autosized Heating Supply Air Flow Rate
  1,                                      !- Heating Fraction of Autosized Cooling Supply Air Flow Rate
  3.1588213e-005,                         !- Heating Supply Air Flow Rate Per Unit Heating Capacity {m3/s-W}
  CoolingDesignCapacity,                  !- Cooling Design Capacity Method
  autosize,                               !- Cooling Design Capacity {W}
  234.7,                                  !- Cooling Design Capacity Per Floor Area {W/m2}
  1,                                      !- Fraction of Autosized Cooling Design Capacity
  HeatingDesignCapacity,                  !- Heating Design Capacity Method
  autosize,                               !- Heating Design Capacity {W}
  157,                                    !- Heating Design Capacity Per Floor Area {W/m2}
  1,                                      !- Fraction of Autosized Heating Design Capacity
  OnOff;                                  !- Central Cooling Capacity Control Method

OS:Schedule:Constant,
  {f8f3c556-6640-4fe4-8bc0-3b758bd97cdc}, !- Handle
  Always On Discrete,                     !- Name
  {94d3b76a-0077-4c27-85ff-6b868b8924da}, !- Schedule Type Limits Name
  1;                                      !- Value

OS:ScheduleTypeLimits,
  {94d3b76a-0077-4c27-85ff-6b868b8924da}, !- Handle
  OnOff,                                  !- Name
  0,                                      !- Lower Limit Value
  1,                                      !- Upper Limit Value
  Discrete,                               !- Numeric Type
  Availability;                           !- Unit Type

OS:AvailabilityManagerAssignmentList,
  {550e7a6b-ee16-4127-8455-b9a8f2201421}, !- Handle
  Air Loop HVAC 1 AvailabilityManagerAssignmentList; !- Name

! TrackingID:#[C6Cspu]
OS:Fan:VariableVolume,
  {b7f88518-7a40-4a3d-8ceb-248f184de115}, !- Handle
  Fan Variable Volume 1,                  !- Name
  {f8f3c556-6640-4fe4-8bc0-3b758bd97cdc}, !- Availability Schedule Name
  0.6045,                                 !- Fan Efficiency
  1017.592,                               !- Pressure Rise {Pa}
  Autosize,                               !- Maximum Flow Rate {m3/s}
  FixedFlowRate,                          !- Fan Power Minimum Flow Rate Input Method
  0,                                      !- Fan Power Minimum Flow Fraction
  0,                                      !- Fan Power Minimum Air Flow Rate {m3/s}
  0.93,                                   !- Motor Efficiency
  1,                                      !- Motor In Airstream Fraction
  0.040759894,                            !- Fan Power Coefficient 1
  0.08804497,                             !- Fan Power Coefficient 2
  -0.07292612,                            !- Fan Power Coefficient 3
  0.943739823,                            !- Fan Power Coefficient 4
  0,                                      !- Fan Power Coefficient 5
  {88f20493-8021-4c57-807e-84e64a38bf12}, !- Air Inlet Node Name
  {49546e30-100c-48fc-b9ec-85bf163fd362}, !- Air Outlet Node Name
  ;                                       !- End-Use Subcategory

OS:Connection,
  {88f20493-8021-4c57-807e-84e64a38bf12}, !- Handle
  {fb12e7c4-b332-4d8d-8d5c-ecf1168191e3}, !- Name
  {a36b27cc-3606-45d3-a967-de9ce5b5a440}, !- Source Object
  3,                                      !- Outlet Port
  {b7f88518-7a40-4a3d-8ceb-248f184de115}, !- Target Object
  16;                                     !- Inlet Port

OS:Connection,
  {49546e30-100c-48fc-b9ec-85bf163fd362}, !- Handle
  {46832258-da71-4a3b-8f3f-82f585a60924}, !- Name
  {b7f88518-7a40-4a3d-8ceb-248f184de115}, !- Source Object
  17,                                     !- Outlet Port
  {08d64d05-7a66-4369-9245-9550abe43958}, !- Target Object
  2;                                      !- Inlet Port

! TrackingID:#[eCr4Ku]
OS:ThermalZone,
  {09f3d306-c787-468d-91e7-27387058e865}, !- Handle
  zone_0,                                 !- Name
  ,                                       !- Multiplier
  ,                                       !- Ceiling Height {m}
  ,                                       !- Volume {m3}
  ,                                       !- Floor Area {m2}
  ,                                       !- Zone Inside Convection Algorithm
  ,                                       !- Zone Outside Convection Algorithm
  ,                                       !- Zone Conditioning Equipment List Name
  {a6bc8b1e-c28f-47f5-90e1-022efc6dd1ca}, !- Zone Air Inlet Port List
  {dac8d1bd-5caa-48ae-9d60-f0f408207e31}, !- Zone Air Exhaust Port List
  {5cc77ad8-dc1c-45b8-acd4-91a375d1589a}, !- Zone Air Node Name
  {4e456c65-f250-4e24-bc3e-8b835d96b588}, !- Zone Return Air Node Name
  ,                                       !- Primary Daylighting Control Name
  ,                                       !- Fraction of Zone Controlled by Primary Daylighting Control
  ,                                       !- Secondary Daylighting Control Name
  ,                                       !- Fraction of Zone Controlled by Secondary Daylighting Control
  ,                                       !- Illuminance Map Name
  ,                                       !- Group Rendering Name
  ,                                       !- Thermostat Name
  No;                                     !- Use Ideal Air Loads

OS:Node,
  {79c9149e-ead7-43ee-a580-03520b0cc1b0}, !- Handle
  Node 6,                                 !- Name
  {5cc77ad8-dc1c-45b8-acd4-91a375d1589a}, !- Inlet Port
  ;                                       !- Outlet Port

OS:Connection,
  {5cc77ad8-dc1c-45b8-acd4-91a375d1589a}, !- Handle
  {3471721c-333f-4169-ba5f-fbcf6c003a1e}, !- Name
  {09f3d306-c787-468d-91e7-27387058e865}, !- Source Object
  11,                                     !- Outlet Port
  {79c9149e-ead7-43ee-a580-03520b0cc1b0}, !- Target Object
  2;                                      !- Inlet Port

OS:PortList,
  {a6bc8b1e-c28f-47f5-90e1-022efc6dd1ca}, !- Handle
  {c51c1281-97f1-4bb1-aba8-df4197e7b212}, !- Name
  {09f3d306-c787-468d-91e7-27387058e865}, !- HVAC Component
  {069e7e6d-1fba-4fb3-9fce-f2aa3405b211}; !- Port 1

OS:PortList,
  {dac8d1bd-5caa-48ae-9d60-f0f408207e31}, !- Handle
  {57db43de-8861-4d17-b5d1-2f45081cc759}, !- Name
  {09f3d306-c787-468d-91e7-27387058e865}; !- HVAC Component

OS:Sizing:Zone,
  {a961316e-576a-413e-b383-e55269b83f17}, !- Handle
  {09f3d306-c787-468d-91e7-27387058e865}, !- Zone or ZoneList Name
  SupplyAirTemperature,                   !- Zone Cooling Design Supply Air Temperature Input Method
  14,                                     !- Zone Cooling Design Supply Air Temperature {C}
  11.11,                                  !- Zone Cooling Design Supply Air Temperature Difference {deltaC}
  SupplyAirTemperature,                   !- Zone Heating Design Supply Air Temperature Input Method
  40,                                     !- Zone Heating Design Supply Air Temperature {C}
  11.11,                                  !- Zone Heating Design Supply Air Temperature Difference {deltaC}
  0.0085,                                 !- Zone Cooling Design Supply Air Humidity Ratio {kg-H2O/kg-air}
  0.008,                                  !- Zone Heating Design Supply Air Humidity Ratio {kg-H2O/kg-air}
  ,                                       !- Zone Heating Sizing Factor
  ,                                       !- Zone Cooling Sizing Factor
  DesignDay,                              !- Cooling Design Air Flow Method
  ,                                       !- Cooling Design Air Flow Rate {m3/s}
  ,                                       !- Cooling Minimum Air Flow per Zone Floor Area {m3/s-m2}
  ,                                       !- Cooling Minimum Air Flow {m3/s}
  ,                                       !- Cooling Minimum Air Flow Fraction
  DesignDay,                              !- Heating Design Air Flow Method
  ,                                       !- Heating Design Air Flow Rate {m3/s}
  ,                                       !- Heating Maximum Air Flow per Zone Floor Area {m3/s-m2}
  ,                                       !- Heating Maximum Air Flow {m3/s}
  ,                                       !- Heating Maximum Air Flow Fraction
  ,                                       !- Design Zone Air Distribution Effectiveness in Cooling Mode
  ,                                       !- Design Zone Air Distribution Effectiveness in Heating Mode
  No,                                     !- Account for Dedicated Outdoor Air System
  NeutralSupplyAir,                       !- Dedicated Outdoor Air System Control Strategy
  autosize,                               !- Dedicated Outdoor Air Low Setpoint Temperature for Design {C}
  autosize;                               !- Dedicated Outdoor Air High Setpoint Temperature for Design {C}

OS:ZoneHVAC:EquipmentList,
  {8e6b942d-e5d4-4ad5-a7c8-662c4dc462a9}, !- Handle
  Zone HVAC Equipment List 1,             !- Name
  {09f3d306-c787-468d-91e7-27387058e865}, !- Thermal Zone
  {640be741-0079-401b-8ce7-0d20f5d6d809}, !- Zone Equipment 1
  1,                                      !- Zone Equipment Cooling Sequence 1
  1;                                      !- Zone Equipment Heating or No-Load Sequence 1

! TrackingID:#[aKORx3]
OS:Sizing:Zone,
  {60ec1541-38ed-433c-bc10-b16f6362088e}, !- Handle
  {09f3d306-c787-468d-91e7-27387058e865}, !- Zone or ZoneList Name
  SupplyAirTemperature,                   !- Zone Cooling Design Supply Air Temperature Input Method
  14,                                     !- Zone Cooling Design Supply Air Temperature {C}
  11.11,                                  !- Zone Cooling Design Supply Air Temperature Difference {deltaC}
  SupplyAirTemperature,                   !- Zone Heating Design Supply Air Temperature Input Method
  40,                                     !- Zone Heating Design Supply Air Temperature {C}
  11.11,                                  !- Zone Heating Design Supply Air Temperature Difference {deltaC}
  0.0085,                                 !- Zone Cooling Design Supply Air Humidity Ratio {kg-H2O/kg-air}
  0.008,                                  !- Zone Heating Design Supply Air Humidity Ratio {kg-H2O/kg-air}
  ,                                       !- Zone Heating Sizing Factor
  ,                                       !- Zone Cooling Sizing Factor
  DesignDay,                              !- Cooling Design Air Flow Method
  ,                                       !- Cooling Design Air Flow Rate {m3/s}
  ,                                       !- Cooling Minimum Air Flow per Zone Floor Area {m3/s-m2}
  ,                                       !- Cooling Minimum Air Flow {m3/s}
  ,                                       !- Cooling Minimum Air Flow Fraction
  DesignDay,                              !- Heating Design Air Flow Method
  ,                                       !- Heating Design Air Flow Rate {m3/s}
  ,                                       !- Heating Maximum Air Flow per Zone Floor Area {m3/s-m2}
  ,                                       !- Heating Maximum Air Flow {m3/s}
  ,                                       !- Heating Maximum Air Flow Fraction
  ,                                       !- Design Zone Air Distribution Effectiveness in Cooling Mode
  ,                                       !- Design Zone Air Distribution Effectiveness in Heating Mode
  No,                                     !- Account for Dedicated Outdoor Air System
  NeutralSupplyAir,                       !- Dedicated Outdoor Air System Control Strategy
  autosize,                               !- Dedicated Outdoor Air Low Setpoint Temperature for Design {C}
  autosize;                               !- Dedicated Outdoor Air High Setpoint Temperature for Design {C}

OS:Coil:Heating:Water,
  {a2e5cd52-9806-48b9-853a-ebddfd096403}, !- Handle
  Coil Heating Water 1,                   !- Name
  {f8f3c556-6640-4fe4-8bc0-3b758bd97cdc}, !- Availability Schedule Name
  ,                                       !- U-Factor Times Area Value {W/K}
  ,                                       !- Maximum Water Flow Rate {m3/s}
  ,                                       !- Water Inlet Node Name
  ,                                       !- Water Outlet Node Name
  ,                                       !- Air Inlet Node Name
  ,                                       !- Air Outlet Node Name
  ,                                       !- Performance Input Method
  ,                                       !- Rated Capacity {W}
  ,                                       !- Rated Inlet Water Temperature {C}
  ,                                       !- Rated Inlet Air Temperature {C}
  ,                                       !- Rated Outlet Water Temperature {C}
  ,                                       !- Rated Outlet Air Temperature {C}
  ;                                       !- Rated Ratio for Air and Water Convection

! TrackingID:#[ficQaY]
OS:AirTerminal:SingleDuct:VAV:Reheat,
  {640be741-0079-401b-8ce7-0d20f5d6d809}, !- Handle
  Air Terminal Single Duct VAV Reheat 1,  !- Name
  {f8f3c556-6640-4fe4-8bc0-3b758bd97cdc}, !- Availability Schedule Name
  {1a70eddb-2211-4231-9675-7f688e6bd72f}, !- Air Inlet Node Name
  AutoSize,                               !- Maximum Air Flow Rate {m3/s}
  Constant,                               !- Zone Minimum Air Flow Input Method
  0.3,                                    !- Constant Minimum Air Flow Fraction
  0,                                      !- Fixed Minimum Air Flow Rate {m3/s}
  ,                                       !- Minimum Air Flow Fraction Schedule Name
  {8b4b9427-56de-4d85-937e-4ad3a8a1c392}, !- Reheat Coil Name
  AutoSize,                               !- Maximum Hot Water or Steam Flow Rate {m3/s}
  0,                                      !- Minimum Hot Water or Steam Flow Rate {m3/s}
  {6bbdd1aa-221c-412f-9291-efea92f07625}, !- Air Outlet Node Name
  0.001,                                  !- Convergence Tolerance
  Normal,                                 !- Damper Heating Action
  AutoSize,                               !- Maximum Flow per Zone Floor Area During Reheat {m3/s-m2}
  AutoSize,                               !- Maximum Flow Fraction During Reheat
  35,                                     !- Maximum Reheat Air Temperature {C}
  No;                                     !- Control For Outdoor Air

! TrackingID:#[PV4V0W]
OS:Coil:Heating:Water,
  {8b4b9427-56de-4d85-937e-4ad3a8a1c392}, !- Handle
  Coil Heating Water 2,                   !- Name
  {f8f3c556-6640-4fe4-8bc0-3b758bd97cdc}, !- Availability Schedule Name
  ,                                       !- U-Factor Times Area Value {W/K}
  ,                                       !- Maximum Water Flow Rate {m3/s}
  {b7cee6cb-ffa1-449c-8dcc-3fbbbc041ced}, !- Water Inlet Node Name
  {5b304b35-8e35-4292-b8cd-281f5bd70415}, !- Water Outlet Node Name
  ,                                       !- Air Inlet Node Name
  ,                                       !- Air Outlet Node Name
  ,                                       !- Performance Input Method
  ,                                       !- Rated Capacity {W}
  ,                                       !- Rated Inlet Water Temperature {C}
  ,                                       !- Rated Inlet Air Temperature {C}
  ,                                       !- Rated Outlet Water Temperature {C}
  ,                                       !- Rated Outlet Air Temperature {C}
  ;                                       !- Rated Ratio for Air and Water Convection

OS:Node,
  {6e00d80c-a851-4ba6-9a86-6a21fdded191}, !- Handle
  Node 7,                                 !- Name
  {4e456c65-f250-4e24-bc3e-8b835d96b588}, !- Inlet Port
  {fd036e9d-7f92-4d94-9f2a-ca5ef1ba1321}; !- Outlet Port

OS:Connection,
  {069e7e6d-1fba-4fb3-9fce-f2aa3405b211}, !- Handle
  {333e43e6-839d-43c8-93f0-4c6648d7f83c}, !- Name
  {8d7f4650-378f-40a2-9aef-fd9b6e095f92}, !- Source Object
  3,                                      !- Outlet Port
  {a6bc8b1e-c28f-47f5-90e1-022efc6dd1ca}, !- Target Object
  3;                                      !- Inlet Port

OS:Connection,
  {4e456c65-f250-4e24-bc3e-8b835d96b588}, !- Handle
  {5ab90e56-5c52-4594-ad83-bd14dcd7e38d}, !- Name
  {09f3d306-c787-468d-91e7-27387058e865}, !- Source Object
  12,                                     !- Outlet Port
  {6e00d80c-a851-4ba6-9a86-6a21fdded191}, !- Target Object
  2;                                      !- Inlet Port

OS:Connection,
  {fd036e9d-7f92-4d94-9f2a-ca5ef1ba1321}, !- Handle
  {50390028-e847-46c1-ac83-0296d7b3c07b}, !- Name
  {6e00d80c-a851-4ba6-9a86-6a21fdded191}, !- Source Object
  3,                                      !- Outlet Port
  {a44ad03e-39d7-4f6f-a72a-9a56afdd4cd1}, !- Target Object
  3;                                      !- Inlet Port

OS:Node,
  {10063bba-7258-4d1f-b407-7be1e7077040}, !- Handle
  Node 8,                                 !- Name
  {0c699bcb-92e3-4f29-a04c-7f7de8bac48d}, !- Inlet Port
  {1a70eddb-2211-4231-9675-7f688e6bd72f}; !- Outlet Port

OS:Connection,
  {0c699bcb-92e3-4f29-a04c-7f7de8bac48d}, !- Handle
  {b0e7c62c-f6b0-421c-b3ff-cad60a65f0e7}, !- Name
  {47d1d0f1-acf3-44e7-82ce-9b81005427b6}, !- Source Object
  3,                                      !- Outlet Port
  {10063bba-7258-4d1f-b407-7be1e7077040}, !- Target Object
  2;                                      !- Inlet Port

OS:Connection,
  {1a70eddb-2211-4231-9675-7f688e6bd72f}, !- Handle
  {b740810f-2a04-4809-90b9-ec6f712455fd}, !- Name
  {10063bba-7258-4d1f-b407-7be1e7077040}, !- Source Object
  3,                                      !- Outlet Port
  {640be741-0079-401b-8ce7-0d20f5d6d809}, !- Target Object
  3;                                      !- Inlet Port

OS:Connection,
  {6bbdd1aa-221c-412f-9291-efea92f07625}, !- Handle
  {64dc167c-e1cc-4ac2-b60d-1812adbd5ed0}, !- Name
  {640be741-0079-401b-8ce7-0d20f5d6d809}, !- Source Object
  12,                                     !- Outlet Port
  {8d7f4650-378f-40a2-9aef-fd9b6e095f92}, !- Target Object
  2;                                      !- Inlet Port

! TrackingID:#[dnqLB4]
OS:ThermalZone,
  {00af23df-ad63-40a8-98bd-9f94fdd842a4}, !- Handle
  zone_1,                                 !- Name
  ,                                       !- Multiplier
  ,                                       !- Ceiling Height {m}
  ,                                       !- Volume {m3}
  ,                                       !- Floor Area {m2}
  ,                                       !- Zone Inside Convection Algorithm
  ,                                       !- Zone Outside Convection Algorithm
  ,                                       !- Zone Conditioning Equipment List Name
  {1c081792-f29b-4e76-89fd-2a6f22f2d8d5}, !- Zone Air Inlet Port List
  {8f91b68a-0022-4e48-a4d9-63e877fc60d3}, !- Zone Air Exhaust Port List
  {f8dacad7-f622-4a7e-95a7-3967bf45da9a}, !- Zone Air Node Name
  {9bc0e774-3743-4738-96bb-3c9e420659fe}, !- Zone Return Air Node Name
  ,                                       !- Primary Daylighting Control Name
  ,                                       !- Fraction of Zone Controlled by Primary Daylighting Control
  ,                                       !- Secondary Daylighting Control Name
  ,                                       !- Fraction of Zone Controlled by Secondary Daylighting Control
  ,                                       !- Illuminance Map Name
  ,                                       !- Group Rendering Name
  ,                                       !- Thermostat Name
  No;                                     !- Use Ideal Air Loads

OS:Node,
  {3228060f-1875-4077-ad37-8858d96e2a77}, !- Handle
  Node 9,                                 !- Name
  {f8dacad7-f622-4a7e-95a7-3967bf45da9a}, !- Inlet Port
  ;                                       !- Outlet Port

OS:Connection,
  {f8dacad7-f622-4a7e-95a7-3967bf45da9a}, !- Handle
  {94a3dc0c-4e36-4d82-b59a-202cd1aad698}, !- Name
  {00af23df-ad63-40a8-98bd-9f94fdd842a4}, !- Source Object
  11,                                     !- Outlet Port
  {3228060f-1875-4077-ad37-8858d96e2a77}, !- Target Object
  2;                                      !- Inlet Port

OS:PortList,
  {1c081792-f29b-4e76-89fd-2a6f22f2d8d5}, !- Handle
  {4e98c48c-6f9c-4f20-a01b-d01ec5fe0d9f}, !- Name
  {00af23df-ad63-40a8-98bd-9f94fdd842a4}, !- HVAC Component
  {94ae4a96-c86d-4af8-8701-e7682ac4efcb}; !- Port 1

OS:PortList,
  {8f91b68a-0022-4e48-a4d9-63e877fc60d3}, !- Handle
  {5b52eca6-92db-49fc-8908-06112760b7fc}, !- Name
  {00af23df-ad63-40a8-98bd-9f94fdd842a4}; !- HVAC Component

OS:Sizing:Zone,
  {e5603999-6cde-41c1-9fbb-e1fc4616b13b}, !- Handle
  {00af23df-ad63-40a8-98bd-9f94fdd842a4}, !- Zone or ZoneList Name
  SupplyAirTemperature,                   !- Zone Cooling Design Supply Air Temperature Input Method
  14,                                     !- Zone Cooling Design Supply Air Temperature {C}
  11.11,                                  !- Zone Cooling Design Supply Air Temperature Difference {deltaC}
  SupplyAirTemperature,                   !- Zone Heating Design Supply Air Temperature Input Method
  40,                                     !- Zone Heating Design Supply Air Temperature {C}
  11.11,                                  !- Zone Heating Design Supply Air Temperature Difference {deltaC}
  0.0085,                                 !- Zone Cooling Design Supply Air Humidity Ratio {kg-H2O/kg-air}
  0.008,                                  !- Zone Heating Design Supply Air Humidity Ratio {kg-H2O/kg-air}
  ,                                       !- Zone Heating Sizing Factor
  ,                                       !- Zone Cooling Sizing Factor
  DesignDay,                              !- Cooling Design Air Flow Method
  ,                                       !- Cooling Design Air Flow Rate {m3/s}
  ,                                       !- Cooling Minimum Air Flow per Zone Floor Area {m3/s-m2}
  ,                                       !- Cooling Minimum Air Flow {m3/s}
  ,                                       !- Cooling Minimum Air Flow Fraction
  DesignDay,                              !- Heating Design Air Flow Method
  ,                                       !- Heating Design Air Flow Rate {m3/s}
  ,                                       !- Heating Maximum Air Flow per Zone Floor Area {m3/s-m2}