
OS:Version,
  {3e5d5438-2ed4-44dc-99d8-5377a723d0f0}, !- Handle
  2.4.0;                                  !- Version Identifier

OS:AirLoopHVAC,
  {0eb54e04-b5bc-468d-9678-e59fb91d7e2d}, !- Handle
  Air Loop HVAC 1,                        !- Name
  ,                                       !- Controller List Name
  {1b1e4ad4-2a45-410c-aca3-975f2b4d1b48}, !- Availability Schedule
  {fe7a2967-bc13-4209-96e7-8d75e5e1d995}, !- Availability Manager List Name
  AutoSize,                               !- Design Supply Air Flow Rate {m3/s}
  ,                                       !- Branch List Name
  ,                                       !- Connector List Name
  {20e7ad55-8f03-44dd-8c7a-91f40026acc5}, !- Supply Side Inlet Node Name
  {ab10b775-ea93-4190-b276-88208b595d5a}, !- Demand Side Outlet Node Name
  {a802f48e-3c61-4312-83ec-a98cf3f93d37}, !- Demand Side Inlet Node A
  {4a4b1aea-2bf3-4d0a-a9d7-1d029cfc85cb}, !- Supply Side Outlet Node A
  ,                                       !- Demand Side Inlet Node B
  ,                                       !- Supply Side Outlet Node B
  ,                                       !- Return Air Bypass Flow Temperature Setpoint Schedule Name
  {92ea1a56-f2e9-477e-8b20-aaa1fb3d6323}, !- Demand Mixer Name
  {70c875fb-6285-46fc-a1ac-3e2d6d1673e7}, !- Demand Splitter A Name
  ,                                       !- Demand Splitter B Name
  ;                                       !- Supply Splitter Name

OS:Node,
  {5380ff0f-a789-439b-a14c-7f4ad46e04e0}, !- Handle
  Node 1,                                 !- Name
  {20e7ad55-8f03-44dd-8c7a-91f40026acc5}, !- Inlet Port
  {69281519-fa37-4742-8daf-19df1fa65244}; !- Outlet Port

OS:Node,
  {561f169d-f012-4e25-aef8-7e20c0f05232}, !- Handle
  Node 2,                                 !- Name
  {e6a5fc69-ed3d-4c31-8830-0e690391f5f2}, !- Inlet Port
  {4a4b1aea-2bf3-4d0a-a9d7-1d029cfc85cb}; !- Outlet Port

OS:Connection,
  {20e7ad55-8f03-44dd-8c7a-91f40026acc5}, !- Handle
  {46950841-86d9-457a-8be1-df3957e7ef6b}, !- Name
  {0eb54e04-b5bc-468d-9678-e59fb91d7e2d}, !- Source Object
  8,                                      !- Outlet Port
  {5380ff0f-a789-439b-a14c-7f4ad46e04e0}, !- Target Object
  2;                                      !- Inlet Port

OS:Connection,
  {4a4b1aea-2bf3-4d0a-a9d7-1d029cfc85cb}, !- Handle
  {ea0ef257-a9a7-4a8a-9dbf-df6e2d7fb5ab}, !- Name
  {561f169d-f012-4e25-aef8-7e20c0f05232}, !- Source Object
  3,                                      !- Outlet Port
  {0eb54e04-b5bc-468d-9678-e59fb91d7e2d}, !- Target Object
  11;                                     !- Inlet Port

OS:Node,
  {d91aadc8-06f0-497f-a3b2-1c2993b1bf35}, !- Handle
  Node 3,                                 !- Name
  {a802f48e-3c61-4312-83ec-a98cf3f93d37}, !- Inlet Port
  {60a05181-acf7-4fcb-b4ce-4ba29af45c82}; !- Outlet Port

OS:Node,
  {055acfe8-098d-4f5e-bba8-12e54c8e3044}, !- Handle
  Node 4,                                 !- Name
  {b23a84bc-5e35-4329-b5d9-801fed7a1582}, !- Inlet Port
  {ab10b775-ea93-4190-b276-88208b595d5a}; !- Outlet Port

OS:Node,
  {b5edc1d4-accd-4989-9ae6-b136e4a9c3b1}, !- Handle
  Node 5,                                 !- Name
  {4d6e9682-e1db-4866-8156-bf41d539e6c7}, !- Inlet Port
  {82f29c1e-758b-4cff-abdd-0edba3b77c55}; !- Outlet Port

OS:Connection,
  {a802f48e-3c61-4312-83ec-a98cf3f93d37}, !- Handle
  {5c9ea80c-e960-4e5f-a8f4-9aea8cb17732}, !- Name
  {0eb54e04-b5bc-468d-9678-e59fb91d7e2d}, !- Source Object
  10,                                     !- Outlet Port
  {d91aadc8-06f0-497f-a3b2-1c2993b1bf35}, !- Target Object
  2;                                      !- Inlet Port

OS:Connection,
  {ab10b775-ea93-4190-b276-88208b595d5a}, !- Handle
  {1d5521d9-1172-4e92-a308-da2fbc83cad1}, !- Name
  {055acfe8-098d-4f5e-bba8-12e54c8e3044}, !- Source Object
  3,                                      !- Outlet Port
  {0eb54e04-b5bc-468d-9678-e59fb91d7e2d}, !- Target Object
  9;                                      !- Inlet Port

OS:AirLoopHVAC:ZoneSplitter,
  {70c875fb-6285-46fc-a1ac-3e2d6d1673e7}, !- Handle
  Air Loop HVAC Zone Splitter 1,          !- Name
  {60a05181-acf7-4fcb-b4ce-4ba29af45c82}, !- Inlet Node Name
  {4d6e9682-e1db-4866-8156-bf41d539e6c7}; !- Outlet Node Name 1

OS:AirLoopHVAC:ZoneMixer,
  {92ea1a56-f2e9-477e-8b20-aaa1fb3d6323}, !- Handle
  Air Loop HVAC Zone Mixer 1,             !- Name
  {b23a84bc-5e35-4329-b5d9-801fed7a1582}, !- Outlet Node Name
  {82f29c1e-758b-4cff-abdd-0edba3b77c55}; !- Inlet Node Name 1

OS:Connection,
  {60a05181-acf7-4fcb-b4ce-4ba29af45c82}, !- Handle
  {319537ad-ce2e-4865-b780-c477a1bca8ff}, !- Name
  {d91aadc8-06f0-497f-a3b2-1c2993b1bf35}, !- Source Object
  3,                                      !- Outlet Port
  {70c875fb-6285-46fc-a1ac-3e2d6d1673e7}, !- Target Object
  2;                                      !- Inlet Port

OS:Connection,
  {4d6e9682-e1db-4866-8156-bf41d539e6c7}, !- Handle
  {ce396f1a-324d-4faf-b3f5-4088832c7ae6}, !- Name
  {70c875fb-6285-46fc-a1ac-3e2d6d1673e7}, !- Source Object
  3,                                      !- Outlet Port
  {b5edc1d4-accd-4989-9ae6-b136e4a9c3b1}, !- Target Object
  2;                                      !- Inlet Port

OS:Connection,
  {82f29c1e-758b-4cff-abdd-0edba3b77c55}, !- Handle
  {2bf738c0-96b5-4b8d-af00-56467efb97a9}, !- Name
  {b5edc1d4-accd-4989-9ae6-b136e4a9c3b1}, !- Source Object
  3,                                      !- Outlet Port
  {92ea1a56-f2e9-477e-8b20-aaa1fb3d6323}, !- Target Object
  3;                                      !- Inlet Port

OS:Connection,
  {b23a84bc-5e35-4329-b5d9-801fed7a1582}, !- Handle
  {e8ebc83c-b445-47aa-85d0-564d7d58823d}, !- Name
  {92ea1a56-f2e9-477e-8b20-aaa1fb3d6323}, !- Source Object
  2,                                      !- Outlet Port
  {055acfe8-098d-4f5e-bba8-12e54c8e3044}, !- Target Object
  2;                                      !- Inlet Port

OS:Sizing:System,
  {532abc84-613a-4c73-b843-64c9c827ddc9}, !- Handle
  {0eb54e04-b5bc-468d-9678-e59fb91d7e2d}, !- AirLoop Name
  Sensible,                               !- Type of Load to Size On
  Autosize,                               !- Design Outdoor Air Flow Rate {m3/s}
  0.3,                                    !- Minimum System Air Flow Ratio
  7,                                      !- Preheat Design Temperature {C}
  0.008,                                  !- Preheat Design Humidity Ratio {kg-H2O/kg-Air}
  12.8,                                   !- Precool Design Temperature {C}
  0.008,                                  !- Precool Design Humidity Ratio {kg-H2O/kg-Air}
  12.8,                                   !- Central Cooling Design Supply Air Temperature {C}
  16.7,                                   !- Central Heating Design Supply Air Temperature {C}
  NonCoincident,                          !- Sizing Option
  Yes,                                    !- 100% Outdoor Air in Cooling
  Yes,                                    !- 100% Outdoor Air in Heating
  0.0085,                                 !- Central Cooling Design Supply Air Humidity Ratio {kg-H2O/kg-Air}
  0.008,                                  !- Central Heating Design Supply Air Humidity Ratio {kg-H2O/kg-Air}
  DesignDay,                              !- Cooling Design Air Flow Method
  0,                                      !- Cooling Design Air Flow Rate {m3/s}
  DesignDay,                              !- Heating Design Air Flow Method
  0,                                      !- Heating Design Air Flow Rate {m3/s}
  ZoneSum,                                !- System Outdoor Air Method
  1,                                      !- Zone Maximum Outdoor Air Fraction {dimensionless}
  0.0099676501,                           !- Cooling Supply Air Flow Rate Per Floor Area {m3/s-m2}
  1,                                      !- Cooling Fraction of Autosized Cooling Supply Air Flow Rate
  3.9475456e-005,                         !- Cooling Supply Air Flow Rate Per Unit Cooling Capacity {m3/s-W}
  0.0099676501,                           !- Heating Supply Air Flow Rate Per Floor Area {m3/s-m2}
  1,                                      !- Heating Fraction of Autosized Heating Supply Air Flow Rate
  1,                                      !- Heating Fraction of Autosized Cooling Supply Air Flow Rate
  3.1588213e-005,                         !- Heating Supply Air Flow Rate Per Unit Heating Capacity {m3/s-W}
  CoolingDesignCapacity,                  !- Cooling Design Capacity Method
  autosize,                               !- Cooling Design Capacity {W}
  234.7,                                  !- Cooling Design Capacity Per Floor Area {W/m2}
  1,                                      !- Fraction of Autosized Cooling Design Capacity
  HeatingDesignCapacity,                  !- Heating Design Capacity Method
  autosize,                               !- Heating Design Capacity {W}
  157,                                    !- Heating Design Capacity Per Floor Area {W/m2}
  1,                                      !- Fraction of Autosized Heating Design Capacity
  OnOff;                                  !- Central Cooling Capacity Control Method

OS:Schedule:Constant,
  {1b1e4ad4-2a45-410c-aca3-975f2b4d1b48}, !- Handle
  Always On Discrete,                     !- Name
  {a8969eba-8ab8-406e-8820-8d6f9cd2bca9}, !- Schedule Type Limits Name
  1;                                      !- Value

OS:ScheduleTypeLimits,
  {a8969eba-8ab8-406e-8820-8d6f9cd2bca9}, !- Handle
  OnOff,                                  !- Name
  0,                                      !- Lower Limit Value
  1,                                      !- Upper Limit Value
  Discrete,                               !- Numeric Type
  Availability;                           !- Unit Type

OS:AvailabilityManagerAssignmentList,
  {fe7a2967-bc13-4209-96e7-8d75e5e1d995}, !- Handle
  Air Loop HVAC 1 AvailabilityManagerAssignmentList; !- Name

OS:Coil:Heating:Water,
  {a6534d6c-1c2a-4b11-8025-9a4c7e5d1b75}, !- Handle
  Coil Heating Water 1,                   !- Name
  {1b1e4ad4-2a45-410c-aca3-975f2b4d1b48}, !- Availability Schedule Name
  ,                                       !- U-Factor Times Area Value {W/K}
  ,                                       !- Maximum Water Flow Rate {m3/s}
  {2f345d66-4e60-4d00-977f-4d2d674ff230}, !- Water Inlet Node Name
  {343cc3df-7299-4691-9c4c-0fe8d8e68a91}, !- Water Outlet Node Name
  {69281519-fa37-4742-8daf-19df1fa65244}, !- Air Inlet Node Name
  {e6a5fc69-ed3d-4c31-8830-0e690391f5f2}, !- Air Outlet Node Name
  ,                                       !- Performance Input Method
  ,                                       !- Rated Capacity {W}
  ,                                       !- Rated Inlet Water Temperature {C}
  ,                                       !- Rated Inlet Air Temperature {C}
  ,                                       !- Rated Outlet Water Temperature {C}
  ,                                       !- Rated Outlet Air Temperature {C}
  ;                                       !- Rated Ratio for Air and Water Convection

OS:Connection,
  {69281519-fa37-4742-8daf-19df1fa65244}, !- Handle
  {fe0c1e9e-67a6-43f6-b16d-b0eb3c0b1e78}, !- Name
  {5380ff0f-a789-439b-a14c-7f4ad46e04e0}, !- Source Object
  3,                                      !- Outlet Port
  {a6534d6c-1c2a-4b11-8025-9a4c7e5d1b75}, !- Target Object
  7;                                      !- Inlet Port

OS:Connection,
  {e6a5fc69-ed3d-4c31-8830-0e690391f5f2}, !- Handle
  {bcd562bb-ff8b-42a0-b811-511ccdefc00b}, !- Name
  {a6534d6c-1c2a-4b11-8025-9a4c7e5d1b75}, !- Source Object
  8,                                      !- Outlet Port
  {561f169d-f012-4e25-aef8-7e20c0f05232}, !- Target Object
  2;                                      !- Inlet Port

OS:PlantLoop,
  {4130648b-7034-4d4e-a302-71c5c96de0bd}, !- Handle
  Plant Loop 1,                           !- Name
  Water,                                  !- Fluid Type
  0,                                      !- Glycol Concentration
  ,                                       !- User Defined Fluid Type
  ,                                       !- Plant Equipment Operation Heating Load
  ,                                       !- Plant Equipment Operation Cooling Load
  ,                                       !- Primary Plant Equipment Operation Scheme
  {88159eec-85a0-43c6-8757-ee80c131156d}, !- Loop Temperature Setpoint Node Name
  ,                                       !- Maximum Loop Temperature {C}
  ,                                       !- Minimum Loop Temperature {C}
  ,                                       !- Maximum Loop Flow Rate {m3/s}
  ,                                       !- Minimum Loop Flow Rate {m3/s}
  Autocalculate,                          !- Plant Loop Volume {m3}
  {41af53df-c8a7-436a-bee6-8940dbd68166}, !- Plant Side Inlet Node Name
  {c46602cd-2a55-49c7-b885-035bd382db86}, !- Plant Side Outlet Node Name
  ,                                       !- Plant Side Branch List Name
  {1d78e67d-2c9b-421e-9657-a624f5c173e0}, !- Demand Side Inlet Node Name
  {e2358497-a40d-4db8-9571-969333017143}, !- Demand Side Outlet Node Name
  ,                                       !- Demand Side Branch List Name
  ,                                       !- Demand Side Connector List Name
  Optimal,                                !- Load Distribution Scheme
  {6077a43d-271c-4d88-8829-42c03d970c87}, !- Availability Manager List Name
  ,                                       !- Plant Loop Demand Calculation Scheme
  ,                                       !- Common Pipe Simulation
  ,                                       !- Pressure Simulation Type
  ,                                       !- Plant Equipment Operation Heating Load Schedule
  ,                                       !- Plant Equipment Operation Cooling Load Schedule
  ,                                       !- Primary Plant Equipment Operation Scheme Schedule
  ,                                       !- Component Setpoint Operation Scheme Schedule
  {ad9c2100-0a72-47c6-9097-c3aca348910d}, !- Demand Mixer Name
  {60f113ed-d349-4af9-82a0-abb471f0ad80}, !- Demand Splitter Name
  {d8049fa1-a560-4821-b274-3ea6eda9dde9}, !- Supply Mixer Name
  {2dd0949a-4c4d-4a6c-aff2-701b9cb557dc}; !- Supply Splitter Name

OS:Sizing:Plant,
  {4daf4f13-5928-4e5f-bd86-fd683f947d87}, !- Handle
  {4130648b-7034-4d4e-a302-71c5c96de0bd}, !- Plant or Condenser Loop Name
  Heating,                                !- Loop Type
  82,                                     !- Design Loop Exit Temperature {C}
  11,                                     !- Loop Design Temperature Difference {deltaC}
  NonCoincident,                          !- Sizing Option
  1,                                      !- Zone Timesteps in Averaging Window
  None;                                   !- Coincident Sizing Factor Mode

OS:Node,
  {99226100-5efc-4a95-894f-c1456f699aa9}, !- Handle
  Node 6,                                 !- Name
  {41af53df-c8a7-436a-bee6-8940dbd68166}, !- Inlet Port
  {10314254-f4b1-42c7-89b3-8408b544403c}; !- Outlet Port

OS:Node,
  {88159eec-85a0-43c6-8757-ee80c131156d}, !- Handle
  Node 7,                                 !- Name
  {cd2106b3-4389-48d3-bb05-f27e68447f5d}, !- Inlet Port
  {c46602cd-2a55-49c7-b885-035bd382db86}; !- Outlet Port

OS:Node,
  {22265484-e028-44fb-9815-c51599df1d3f}, !- Handle
  Node 8,                                 !- Name
  {52322c01-fa58-4f94-a161-aeb1ded6d2f5}, !- Inlet Port
  {db52ca10-465e-4c88-9c3c-ddfcf3991734}; !- Outlet Port

OS:Connector:Mixer,
  {d8049fa1-a560-4821-b274-3ea6eda9dde9}, !- Handle
  Connector Mixer 1,                      !- Name
  {cd2106b3-4389-48d3-bb05-f27e68447f5d}, !- Outlet Branch Name
  {305dfe60-b886-40f4-b97d-1d388e2ee034}; !- Inlet Branch Name 1

OS:Connector:Splitter,
  {2dd0949a-4c4d-4a6c-aff2-701b9cb557dc}, !- Handle
  Connector Splitter 1,                   !- Name
  {10314254-f4b1-42c7-89b3-8408b544403c}, !- Inlet Branch Name
  {52322c01-fa58-4f94-a161-aeb1ded6d2f5}; !- Outlet Branch Name 1

OS:Connection,
  {41af53df-c8a7-436a-bee6-8940dbd68166}, !- Handle
  {97d261ee-580c-4044-a1c6-34293812807d}, !- Name
  {4130648b-7034-4d4e-a302-71c5c96de0bd}, !- Source Object
  14,                                     !- Outlet Port
  {99226100-5efc-4a95-894f-c1456f699aa9}, !- Target Object
  2;                                      !- Inlet Port

OS:Connection,
  {10314254-f4b1-42c7-89b3-8408b544403c}, !- Handle
  {01382706-0010-4dbd-a8e3-219b6dfba779}, !- Name
  {99226100-5efc-4a95-894f-c1456f699aa9}, !- Source Object
  3,                                      !- Outlet Port
  {2dd0949a-4c4d-4a6c-aff2-701b9cb557dc}, !- Target Object
  2;                                      !- Inlet Port

OS:Connection,
  {52322c01-fa58-4f94-a161-aeb1ded6d2f5}, !- Handle
  {35a074f1-4590-4cb0-ad4c-d975e09d1578}, !- Name
  {2dd0949a-4c4d-4a6c-aff2-701b9cb557dc}, !- Source Object
  3,                                      !- Outlet Port
  {22265484-e028-44fb-9815-c51599df1d3f}, !- Target Object
  2;                                      !- Inlet Port

OS:Connection,
  {cd2106b3-4389-48d3-bb05-f27e68447f5d}, !- Handle
  {cff4ed80-6a8d-4108-98bf-439bed6e665f}, !- Name
  {d8049fa1-a560-4821-b274-3ea6eda9dde9}, !- Source Object
  2,                                      !- Outlet Port
  {88159eec-85a0-43c6-8757-ee80c131156d}, !- Target Object
  2;                                      !- Inlet Port

OS:Connection,
  {c46602cd-2a55-49c7-b885-035bd382db86}, !- Handle
  {b5ee94d5-948b-4f13-a015-77f3dd33e658}, !- Name
  {88159eec-85a0-43c6-8757-ee80c131156d}, !- Source Object
  3,                                      !- Outlet Port
  {4130648b-7034-4d4e-a302-71c5c96de0bd}, !- Target Object
  15;                                     !- Inlet Port

OS:Node,
  {b0ccc7fb-4f36-4cdd-8fc8-c1fbbb9cf179}, !- Handle
  Node 9,                                 !- Name
  {1d78e67d-2c9b-421e-9657-a624f5c173e0}, !- Inlet Port
  {74892b4f-db70-4618-903a-1d2f6dbec247}; !- Outlet Port

OS:Node,
  {0892438e-4dd0-4c2f-ad4b-af0d33793f40}, !- Handle
  Node 10,                                !- Name
  {ed43cebe-74e8-4a7e-9865-eeea81bdf603}, !- Inlet Port
  {e2358497-a40d-4db8-9571-969333017143}; !- Outlet Port

OS:Node,
  {0279efa4-0cae-4e0f-8227-9321d89818e7}, !- Handle
  Node 11,                                !- Name
  {ddcf7511-e743-424f-89c4-6b035f80da2d}, !- Inlet Port
  {2f345d66-4e60-4d00-977f-4d2d674ff230}; !- Outlet Port

OS:Connector:Mixer,
  {ad9c2100-0a72-47c6-9097-c3aca348910d}, !- Handle
  Connector Mixer 2,                      !- Name
  {ed43cebe-74e8-4a7e-9865-eeea81bdf603}, !- Outlet Branch Name
  {daf7e8a4-1d1b-40e2-a852-9cd7e1bfa65e}; !- Inlet Branch Name 1

OS:Connector:Splitter,
  {60f113ed-d349-4af9-82a0-abb471f0ad80}, !- Handle
  Connector Splitter 2,                   !- Name
  {74892b4f-db70-4618-903a-1d2f6dbec247}, !- Inlet Branch Name
  {ddcf7511-e743-424f-89c4-6b035f80da2d}; !- Outlet Branch Name 1

OS:Connection,
  {1d78e67d-2c9b-421e-9657-a624f5c173e0}, !- Handle
  {2364bad9-45c1-4081-949c-756ae8937a67}, !- Name
  {4130648b-7034-4d4e-a302-71c5c96de0bd}, !- Source Object
  17,                                     !- Outlet Port
  {b0ccc7fb-4f36-4cdd-8fc8-c1fbbb9cf179}, !- Target Object
  2;                                      !- Inlet Port

OS:Connection,
  {74892b4f-db70-4618-903a-1d2f6dbec247}, !- Handle
  {d40ccf80-cf42-42f3-ae9b-7fc26f95d794}, !- Name
  {b0ccc7fb-4f36-4cdd-8fc8-c1fbbb9cf179}, !- Source Object
  3,                                      !- Outlet Port
  {60f113ed-d349-4af9-82a0-abb471f0ad80}, !- Target Object
  2;                                      !- Inlet Port

OS:Connection,
  {ddcf7511-e743-424f-89c4-6b035f80da2d}, !- Handle
  {747469ba-e6c6-44c7-bdf5-7ab00a7024e2}, !- Name
  {60f113ed-d349-4af9-82a0-abb471f0ad80}, !- Source Object
  3,                                      !- Outlet Port
  {0279efa4-0cae-4e0f-8227-9321d89818e7}, !- Target Object
  2;                                      !- Inlet Port

OS:Connection,
  {ed43cebe-74e8-4a7e-9865-eeea81bdf603}, !- Handle
  {21181f0f-4295-44ce-9d6e-8335c4c8e464}, !- Name
  {ad9c2100-0a72-47c6-9097-c3aca348910d}, !- Source Object
  2,                                      !- Outlet Port
  {0892438e-4dd0-4c2f-ad4b-af0d33793f40}, !- Target Object
  2;                                      !- Inlet Port

OS:Connection,
  {e2358497-a40d-4db8-9571-969333017143}, !- Handle
  {281fc89f-be45-49df-ab2d-aaddb5dbbc0b}, !- Name
  {0892438e-4dd0-4c2f-ad4b-af0d33793f40}, !- Source Object
  3,                                      !- Outlet Port
  {4130648b-7034-4d4e-a302-71c5c96de0bd}, !- Target Object
  18;                                     !- Inlet Port

OS:AvailabilityManagerAssignmentList,
  {6077a43d-271c-4d88-8829-42c03d970c87}, !- Handle
  Plant Loop 1 AvailabilityManagerAssignmentList; !- Name

OS:Boiler:HotWater,
  {4bc24b86-e11a-403b-8bba-1ef66ee7955d}, !- Handle
  Boiler Hot Water 1,                     !- Name
  ,                                       !- Fuel Type
  ,                                       !- Nominal Capacity {W}
  ,                                       !- Nominal Thermal Efficiency
  ,                                       !- Efficiency Curve Temperature Evaluation Variable
  ,                                       !- Normalized Boiler Efficiency Curve Name
  ,                                       !- Design Water Outlet Temperature {C}
  ,                                       !- Design Water Flow Rate {m3/s}
  ,                                       !- Minimum Part Load Ratio
  ,                                       !- Maximum Part Load Ratio
  ,                                       !- Optimum Part Load Ratio
  {db52ca10-465e-4c88-9c3c-ddfcf3991734}, !- Boiler Water Inlet Node Name
  {44ea7ba0-f143-4b2c-91ed-23ddc2f63386}, !- Boiler Water Outlet Node Name
  99,                                     !- Water Outlet Upper Temperature Limit {C}
  ConstantFlow,                           !- Boiler Flow Mode
  0,                                      !- Parasitic Electric Load {W}
  1;                                      !- Sizing Factor

OS:Node,
  {eb3c5d60-1382-4046-bcf2-25e2b05c6006}, !- Handle
  Node 12,                                !- Name
  {44ea7ba0-f143-4b2c-91ed-23ddc2f63386}, !- Inlet Port
  {305dfe60-b886-40f4-b97d-1d388e2ee034}; !- Outlet Port

OS:Connection,
  {db52ca10-465e-4c88-9c3c-ddfcf3991734}, !- Handle
  {502a58e5-0153-432e-b0cf-c66c617c598f}, !- Name
  {22265484-e028-44fb-9815-c51599df1d3f}, !- Source Object
  3,                                      !- Outlet Port
  {4bc24b86-e11a-403b-8bba-1ef66ee7955d}, !- Target Object
  12;                                     !- Inlet Port

OS:Connection,
  {44ea7ba0-f143-4b2c-91ed-23ddc2f63386}, !- Handle
  {b7f46ec1-96b2-4c14-ae45-b23de72edefd}, !- Name
  {4bc24b86-e11a-403b-8bba-1ef66ee7955d}, !- Source Object
  13,                                     !- Outlet Port
  {eb3c5d60-1382-4046-bcf2-25e2b05c6006}, !- Target Object
  2;                                      !- Inlet Port

OS:Connection,
  {305dfe60-b886-40f4-b97d-1d388e2ee034}, !- Handle
  {82c4c717-7001-4c0d-b052-b1a5322015ed}, !- Name
  {eb3c5d60-1382-4046-bcf2-25e2b05c6006}, !- Source Object
  3,                                      !- Outlet Port
  {d8049fa1-a560-4821-b274-3ea6eda9dde9}, !- Target Object
  3;                                      !- Inlet Port

OS:Node,
  {552e2a9e-0511-4246-a49e-f507e7e2b4fc}, !- Handle
  Node 13,                                !- Name
  {343cc3df-7299-4691-9c4c-0fe8d8e68a91}, !- Inlet Port
  {daf7e8a4-1d1b-40e2-a852-9cd7e1bfa65e}; !- Outlet Port

OS:Connection,
  {2f345d66-4e60-4d00-977f-4d2d674ff230}, !- Handle
  {b0485ca9-e02e-4a73-8e78-f2fdfd3f26cd}, !- Name
  {0279efa4-0cae-4e0f-8227-9321d89818e7}, !- Source Object
  3,                                      !- Outlet Port
  {a6534d6c-1c2a-4b11-8025-9a4c7e5d1b75}, !- Target Object
  5;                                      !- Inlet Port

OS:Connection,
  {343cc3df-7299-4691-9c4c-0fe8d8e68a91}, !- Handle
  {4b93b596-10fd-490c-b07c-687dcd6cfef7}, !- Name
  {a6534d6c-1c2a-4b11-8025-9a4c7e5d1b75}, !- Source Object
  6,                                      !- Outlet Port
  {552e2a9e-0511-4246-a49e-f507e7e2b4fc}, !- Target Object
  2;                                      !- Inlet Port

OS:Connection,
  {daf7e8a4-1d1b-40e2-a852-9cd7e1bfa65e}, !- Handle
  {43ab263a-debb-4860-a770-0593094abf55}, !- Name
  {552e2a9e-0511-4246-a49e-f507e7e2b4fc}, !- Source Object
  3,                                      !- Outlet Port
  {ad9c2100-0a72-47c6-9097-c3aca348910d}, !- Target Object
  3;                                      !- Inlet Port

OS:Controller:WaterCoil,
  {9e31ffeb-1803-4f4e-854b-2bc21fd74e91}, !- Handle
  Controller Water Coil 1,                !- Name
  {a6534d6c-1c2a-4b11-8025-9a4c7e5d1b75}, !- Water Coil Name
  ,                                       !- Control Variable
  Normal,                                 !- Action
  ,                                       !- Actuator Variable
  ,                                       !- Sensor Node Name
  ,                                       !- Actuator Node Name
  ,                                       !- Controller Convergence Tolerance {deltaC}
  ,                                       !- Maximum Actuated Flow {m3/s}
  0;                                      !- Minimum Actuated Flow {m3/s}

