
OS:Version,
  {a78daf26-61a9-4b76-a058-3aefa184553e}, !- Handle
  2.4.0;                                  !- Version Identifier

OS:AirLoopHVAC,
  {fe106420-692c-48d8-bf5a-3f6d1732bd4f}, !- Handle
  Air Loop HVAC 1,                        !- Name
  ,                                       !- Controller List Name
  {a97398d3-3a19-4039-b3df-f16a540c35c3}, !- Availability Schedule
  {3490e3a5-ac0b-4341-b0e5-30bfca8f8f08}, !- Availability Manager List Name
  AutoSize,                               !- Design Supply Air Flow Rate {m3/s}
  ,                                       !- Branch List Name
  ,                                       !- Connector List Name
  {18801110-74c0-441a-b8cf-ed4f11614cf8}, !- Supply Side Inlet Node Name
  {710918b0-5b04-4724-84c6-8ebc12fe37cb}, !- Demand Side Outlet Node Name
  {aad45634-1d04-42c3-adee-578cd3f6fb32}, !- Demand Side Inlet Node A
  {b6b9f14c-bdaa-4d96-a94e-21225b6e6bc0}, !- Supply Side Outlet Node A
  ,                                       !- Demand Side Inlet Node B
  ,                                       !- Supply Side Outlet Node B
  ,                                       !- Return Air Bypass Flow Temperature Setpoint Schedule Name
  {a93bc4bd-3a3e-45fc-8aeb-c354e09a95c7}, !- Demand Mixer Name
  {1c97fc0c-65c7-4a1d-8699-e749eefd673f}, !- Demand Splitter A Name
  ,                                       !- Demand Splitter B Name
  ;                                       !- Supply Splitter Name

OS:Node,
  {bb5c0dee-767d-4963-8f9c-de0d922bd4cb}, !- Handle
  Node 1,                                 !- Name
  {18801110-74c0-441a-b8cf-ed4f11614cf8}, !- Inlet Port
  {2fa92ab1-0792-4d20-ad95-6663d4421aea}; !- Outlet Port

OS:Node,
  {17d14eac-b4f4-403c-8be1-e884c5c63623}, !- Handle
  Node 2,                                 !- Name
  {eeaeec35-c9a5-4b1a-97fb-6d0dbb93aeae}, !- Inlet Port
  {b6b9f14c-bdaa-4d96-a94e-21225b6e6bc0}; !- Outlet Port

OS:Connection,
  {18801110-74c0-441a-b8cf-ed4f11614cf8}, !- Handle
  {c5cd466f-7967-4185-87c2-b546485d1679}, !- Name
  {fe106420-692c-48d8-bf5a-3f6d1732bd4f}, !- Source Object
  8,                                      !- Outlet Port
  {bb5c0dee-767d-4963-8f9c-de0d922bd4cb}, !- Target Object
  2;                                      !- Inlet Port

OS:Connection,
  {b6b9f14c-bdaa-4d96-a94e-21225b6e6bc0}, !- Handle
  {0325f791-a5ef-4c1a-bc04-f3a5ad519c4d}, !- Name
  {17d14eac-b4f4-403c-8be1-e884c5c63623}, !- Source Object
  3,                                      !- Outlet Port
  {fe106420-692c-48d8-bf5a-3f6d1732bd4f}, !- Target Object
  11;                                     !- Inlet Port

OS:Node,
  {cb6048c3-6925-440e-8d63-bd5b3533ab62}, !- Handle
  Node 3,                                 !- Name
  {aad45634-1d04-42c3-adee-578cd3f6fb32}, !- Inlet Port
  {48f5b533-ab0a-4b92-a28a-08882d6337f8}; !- Outlet Port

OS:Node,
  {4a189224-7aaf-4ced-b1c7-b16d3ca38a7f}, !- Handle
  Node 4,                                 !- Name
  {32291ac9-312f-448c-bf5b-c5be9288af50}, !- Inlet Port
  {710918b0-5b04-4724-84c6-8ebc12fe37cb}; !- Outlet Port

OS:Node,
  {bd845f7b-0d83-42aa-8f8d-6e9eff8f761b}, !- Handle
  Node 5,                                 !- Name
  {d9e62c42-fdec-4f4b-84a8-6b7c6d3cf1b1}, !- Inlet Port
  {e72656bf-8376-43f8-bfe4-d9dc5cef1c1b}; !- Outlet Port

OS:Connection,
  {aad45634-1d04-42c3-adee-578cd3f6fb32}, !- Handle
  {ed30a5cd-38af-4019-be0e-1e42988fbd44}, !- Name
  {fe106420-692c-48d8-bf5a-3f6d1732bd4f}, !- Source Object
  10,                                     !- Outlet Port
  {cb6048c3-6925-440e-8d63-bd5b3533ab62}, !- Target Object
  2;                                      !- Inlet Port

OS:Connection,
  {710918b0-5b04-4724-84c6-8ebc12fe37cb}, !- Handle
  {870f9a7d-07c0-4108-9f77-cd9d03a01a01}, !- Name
  {4a189224-7aaf-4ced-b1c7-b16d3ca38a7f}, !- Source Object
  3,                                      !- Outlet Port
  {fe106420-692c-48d8-bf5a-3f6d1732bd4f}, !- Target Object
  9;                                      !- Inlet Port

OS:AirLoopHVAC:ZoneSplitter,
  {1c97fc0c-65c7-4a1d-8699-e749eefd673f}, !- Handle
  Air Loop HVAC Zone Splitter 1,          !- Name
  {48f5b533-ab0a-4b92-a28a-08882d6337f8}, !- Inlet Node Name
  {1648efe0-a408-42e3-bdc3-3faed2168bdb}; !- Outlet Node Name 1

OS:AirLoopHVAC:ZoneMixer,
  {a93bc4bd-3a3e-45fc-8aeb-c354e09a95c7}, !- Handle
  Air Loop HVAC Zone Mixer 1,             !- Name
  {32291ac9-312f-448c-bf5b-c5be9288af50}, !- Outlet Node Name
  {1cb311fb-6b24-466c-abb3-b0586bf74a37}; !- Inlet Node Name 1

OS:Connection,
  {48f5b533-ab0a-4b92-a28a-08882d6337f8}, !- Handle
  {eb67e005-4117-4e5e-80fa-076cf3b30cd0}, !- Name
  {cb6048c3-6925-440e-8d63-bd5b3533ab62}, !- Source Object
  3,                                      !- Outlet Port
  {1c97fc0c-65c7-4a1d-8699-e749eefd673f}, !- Target Object
  2;                                      !- Inlet Port

OS:Connection,
  {32291ac9-312f-448c-bf5b-c5be9288af50}, !- Handle
  {5d10986e-0e44-4e97-b533-1d67b5c29a0d}, !- Name
  {a93bc4bd-3a3e-45fc-8aeb-c354e09a95c7}, !- Source Object
  2,                                      !- Outlet Port
  {4a189224-7aaf-4ced-b1c7-b16d3ca38a7f}, !- Target Object
  2;                                      !- Inlet Port

OS:Sizing:System,
  {1155e8b3-0eb4-42c4-a536-af1e6acb09d7}, !- Handle
  {fe106420-692c-48d8-bf5a-3f6d1732bd4f}, !- AirLoop Name
  Sensible,                               !- Type of Load to Size On
  Autosize,                               !- Design Outdoor Air Flow Rate {m3/s}
  0.3,                                    !- Minimum System Air Flow Ratio
  7,                                      !- Preheat Design Temperature {C}
  0.008,                                  !- Preheat Design Humidity Ratio {kg-H2O/kg-Air}
  12.8,                                   !- Precool Design Temperature {C}
  0.008,                                  !- Precool Design Humidity Ratio {kg-H2O/kg-Air}
  12.8,                                   !- Central Cooling Design Supply Air Temperature {C}
  16.7,                                   !- Central Heating Design Supply Air Temperature {C}
  NonCoincident,                          !- Sizing Option
  Yes,                                    !- 100% Outdoor Air in Cooling
  Yes,                                    !- 100% Outdoor Air in Heating
  0.0085,                                 !- Central Cooling Design Supply Air Humidity Ratio {kg-H2O/kg-Air}
  0.008,                                  !- Central Heating Design Supply Air Humidity Ratio {kg-H2O/kg-Air}
  DesignDay,                              !- Cooling Design Air Flow Method
  0,                                      !- Cooling Design Air Flow Rate {m3/s}
  DesignDay,                              !- Heating Design Air Flow Method
  0,                                      !- Heating Design Air Flow Rate {m3/s}
  ZoneSum,                                !- System Outdoor Air Method
  1,                                      !- Zone Maximum Outdoor Air Fraction {dimensionless}
  0.0099676501,                           !- Cooling Supply Air Flow Rate Per Floor Area {m3/s-m2}
  1,                                      !- Cooling Fraction of Autosized Cooling Supply Air Flow Rate
  3.9475456e-005,                         !- Cooling Supply Air Flow Rate Per Unit Cooling Capacity {m3/s-W}
  0.0099676501,                           !- Heating Supply Air Flow Rate Per Floor Area {m3/s-m2}
  1,                                      !- Heating Fraction of Autosized Heating Supply Air Flow Rate
  1,                                      !- Heating Fraction of Autosized Cooling Supply Air Flow Rate
  3.1588213e-005,                         !- Heating Supply Air Flow Rate Per Unit Heating Capacity {m3/s-W}
  CoolingDesignCapacity,                  !- Cooling Design Capacity Method
  autosize,                               !- Cooling Design Capacity {W}
  234.7,                                  !- Cooling Design Capacity Per Floor Area {W/m2}
  1,                                      !- Fraction of Autosized Cooling Design Capacity
  HeatingDesignCapacity,                  !- Heating Design Capacity Method
  autosize,                               !- Heating Design Capacity {W}
  157,                                    !- Heating Design Capacity Per Floor Area {W/m2}
  1,                                      !- Fraction of Autosized Heating Design Capacity
  OnOff;                                  !- Central Cooling Capacity Control Method

OS:Schedule:Constant,
  {a97398d3-3a19-4039-b3df-f16a540c35c3}, !- Handle
  Always On Discrete,                     !- Name
  {32e15473-bb23-4417-92a1-6313e0f19243}, !- Schedule Type Limits Name
  1;                                      !- Value

OS:ScheduleTypeLimits,
  {32e15473-bb23-4417-92a1-6313e0f19243}, !- Handle
  OnOff,                                  !- Name
  0,                                      !- Lower Limit Value
  1,                                      !- Upper Limit Value
  Discrete,                               !- Numeric Type
  Availability;                           !- Unit Type

OS:AvailabilityManagerAssignmentList,
  {3490e3a5-ac0b-4341-b0e5-30bfca8f8f08}, !- Handle
  Air Loop HVAC 1 AvailabilityManagerAssignmentList; !- Name

OS:Controller:OutdoorAir,
  {69410d4b-1e01-4200-b996-1a56db69f1e8}, !- Handle
  Controller:OutdoorAir [#WTLC6d],        !- Name
  ,                                       !- Relief Air Outlet Node Name
  ,                                       !- Return Air Node Name
  ,                                       !- Mixed Air Node Name
  ,                                       !- Actuator Node Name
  0,                                      !- Minimum Outdoor Air Flow Rate {m3/s}
  Autosize,                               !- Maximum Outdoor Air Flow Rate {m3/s}
  NoEconomizer,                           !- Economizer Control Type
  ModulateFlow,                           !- Economizer Control Action Type
  28,                                     !- Economizer Maximum Limit Dry-Bulb Temperature {C}
  64000,                                  !- Economizer Maximum Limit Enthalpy {J/kg}
  ,                                       !- Economizer Maximum Limit Dewpoint Temperature {C}
  ,                                       !- Electronic Enthalpy Limit Curve Name
  -100,                                   !- Economizer Minimum Limit Dry-Bulb Temperature {C}
  NoLockout,                              !- Lockout Type
  FixedMinimum,                           !- Minimum Limit Type
  ,                                       !- Minimum Outdoor Air Schedule Name
  ,                                       !- Minimum Fraction of Outdoor Air Schedule Name
  ,                                       !- Maximum Fraction of Outdoor Air Schedule Name
  {76270745-a4d9-45ce-b810-93441b03843d}, !- Controller Mechanical Ventilation
  ,                                       !- Time of Day Economizer Control Schedule Name
  No,                                     !- High Humidity Control
  ,                                       !- Humidistat Control Zone Name
  ,                                       !- High Humidity Outdoor Air Flow Ratio
  ,                                       !- Control High Indoor Humidity Based on Outdoor Humidity Ratio
  BypassWhenWithinEconomizerLimits;       !- Heat Recovery Bypass Control Type

OS:Controller:MechanicalVentilation,
  {76270745-a4d9-45ce-b810-93441b03843d}, !- Handle
  Controller Mechanical Ventilation 1,    !- Name
  {a97398d3-3a19-4039-b3df-f16a540c35c3}, !- Availability Schedule
  ,                                       !- Demand Controlled Ventilation
  ZoneSum;                                !- System Outdoor Air Method

OS:AirLoopHVAC:OutdoorAirSystem,
  {2fa8eb71-e900-485f-84d1-aee373e1dd77}, !- Handle
  AirLoopHVAC:OutdoorAirSystem [#yuJelW], !- Name
  {69410d4b-1e01-4200-b996-1a56db69f1e8}, !- Controller Name
  ,                                       !- Outdoor Air Equipment List Name
  ,                                       !- Availability Manager List Name
  {bdd1315a-b161-49ba-9392-308903388d3e}, !- Mixed Air Node Name
  {00cb419b-6e28-48d3-a618-ddcbc1fa09d4}, !- Outdoor Air Stream Node Name
  {d84cc7af-52b6-4e98-a536-880074f7fc0b}, !- Relief Air Stream Node Name
  {2fa92ab1-0792-4d20-ad95-6663d4421aea}; !- Return Air Stream Node Name

OS:Node,
  {2683d41e-f64e-473f-a31b-922be486adf8}, !- Handle
  Node 6,                                 !- Name
  ,                                       !- Inlet Port
  {00cb419b-6e28-48d3-a618-ddcbc1fa09d4}; !- Outlet Port

OS:Connection,
  {00cb419b-6e28-48d3-a618-ddcbc1fa09d4}, !- Handle
  {adc6a7fe-77a5-4762-ad80-a5df8f7ccf4c}, !- Name
  {2683d41e-f64e-473f-a31b-922be486adf8}, !- Source Object
  3,                                      !- Outlet Port
  {2fa8eb71-e900-485f-84d1-aee373e1dd77}, !- Target Object
  6;                                      !- Inlet Port

OS:Node,
  {412a7b06-cab6-438b-9d60-76953897678b}, !- Handle
  Node 7,                                 !- Name
  {d84cc7af-52b6-4e98-a536-880074f7fc0b}, !- Inlet Port
  ;                                       !- Outlet Port

OS:Connection,
  {d84cc7af-52b6-4e98-a536-880074f7fc0b}, !- Handle
  {31cf9697-0bd0-4635-b071-4eb1265aca83}, !- Name
  {2fa8eb71-e900-485f-84d1-aee373e1dd77}, !- Source Object
  7,                                      !- Outlet Port
  {412a7b06-cab6-438b-9d60-76953897678b}, !- Target Object
  2;                                      !- Inlet Port

OS:Connection,
  {2fa92ab1-0792-4d20-ad95-6663d4421aea}, !- Handle
  {7076b4a4-191a-463c-89c3-49ce7cf1e8a8}, !- Name
  {bb5c0dee-767d-4963-8f9c-de0d922bd4cb}, !- Source Object
  3,                                      !- Outlet Port
  {2fa8eb71-e900-485f-84d1-aee373e1dd77}, !- Target Object
  8;                                      !- Inlet Port

OS:Coil:Heating:Water,
  {90bd89c1-4314-435f-ab49-d10e211bf730}, !- Handle
  Coil:Heating:Water [#Ugnyri],           !- Name
  {a97398d3-3a19-4039-b3df-f16a540c35c3}, !- Availability Schedule Name
  ,                                       !- U-Factor Times Area Value {W/K}
  ,                                       !- Maximum Water Flow Rate {m3/s}
  {88a4734b-1cac-480c-964e-4528fc91b682}, !- Water Inlet Node Name
  {e9466366-a10b-4803-8e1f-e07513899914}, !- Water Outlet Node Name
  {346224a7-d04f-4cf5-888d-93e9168f3079}, !- Air Inlet Node Name
  {161b4459-3cc7-4df8-9321-9d9727edf641}, !- Air Outlet Node Name
  ,                                       !- Performance Input Method
  ,                                       !- Rated Capacity {W}
  ,                                       !- Rated Inlet Water Temperature {C}
  ,                                       !- Rated Inlet Air Temperature {C}
  ,                                       !- Rated Outlet Water Temperature {C}
  ,                                       !- Rated Outlet Air Temperature {C}
  ;                                       !- Rated Ratio for Air and Water Convection

OS:Node,
  {08f192c3-27aa-4658-8a15-cef816fc1073}, !- Handle
  Node 8,                                 !- Name
  {bdd1315a-b161-49ba-9392-308903388d3e}, !- Inlet Port
  {346224a7-d04f-4cf5-888d-93e9168f3079}; !- Outlet Port

OS:Connection,
  {bdd1315a-b161-49ba-9392-308903388d3e}, !- Handle
  {9f0c51d5-a864-4f32-88a8-dc73ba086eff}, !- Name
  {2fa8eb71-e900-485f-84d1-aee373e1dd77}, !- Source Object
  5,                                      !- Outlet Port
  {08f192c3-27aa-4658-8a15-cef816fc1073}, !- Target Object
  2;                                      !- Inlet Port

OS:Connection,
  {346224a7-d04f-4cf5-888d-93e9168f3079}, !- Handle
  {fecc926f-15ec-4675-a8d5-00989d086656}, !- Name
  {08f192c3-27aa-4658-8a15-cef816fc1073}, !- Source Object
  3,                                      !- Outlet Port
  {90bd89c1-4314-435f-ab49-d10e211bf730}, !- Target Object
  7;                                      !- Inlet Port

OS:Fan:ConstantVolume,
  {90bc35cf-717b-4729-9303-cb9c10f8e5f8}, !- Handle
  Fan:ConstantVolume [#POQyRI],           !- Name
  {a97398d3-3a19-4039-b3df-f16a540c35c3}, !- Availability Schedule Name
  0.5,                                    !- Fan Efficiency
  ,                                       !- Pressure Rise {Pa}
  AutoSize,                               !- Maximum Flow Rate {m3/s}
  ,                                       !- Motor Efficiency
  ,                                       !- Motor In Airstream Fraction
  {b610b391-416d-463f-ad74-3efabda298f3}, !- Air Inlet Node Name
  {eeaeec35-c9a5-4b1a-97fb-6d0dbb93aeae}, !- Air Outlet Node Name
  ;                                       !- End-Use Subcategory

OS:Node,
  {1c06f756-89a3-4679-a75b-db1ceb61158e}, !- Handle
  Node 9,                                 !- Name
  {161b4459-3cc7-4df8-9321-9d9727edf641}, !- Inlet Port
  {b610b391-416d-463f-ad74-3efabda298f3}; !- Outlet Port

OS:Connection,
  {161b4459-3cc7-4df8-9321-9d9727edf641}, !- Handle
  {516a6285-1b5e-4880-9ab7-538e5106e255}, !- Name
  {90bd89c1-4314-435f-ab49-d10e211bf730}, !- Source Object
  8,                                      !- Outlet Port
  {1c06f756-89a3-4679-a75b-db1ceb61158e}, !- Target Object
  2;                                      !- Inlet Port

OS:Connection,
  {b610b391-416d-463f-ad74-3efabda298f3}, !- Handle
  {a950eadc-fa1f-4901-ace3-15882c82abd5}, !- Name
  {1c06f756-89a3-4679-a75b-db1ceb61158e}, !- Source Object
  3,                                      !- Outlet Port
  {90bc35cf-717b-4729-9303-cb9c10f8e5f8}, !- Target Object
  8;                                      !- Inlet Port

OS:Connection,
  {eeaeec35-c9a5-4b1a-97fb-6d0dbb93aeae}, !- Handle
  {5ad7972a-c660-4a06-af07-a66435068a38}, !- Name
  {90bc35cf-717b-4729-9303-cb9c10f8e5f8}, !- Source Object
  9,                                      !- Outlet Port
  {17d14eac-b4f4-403c-8be1-e884c5c63623}, !- Target Object
  2;                                      !- Inlet Port

OS:ThermalZone,
  {14f8352b-8a45-4ebe-881b-339daf50ac1d}, !- Handle
  Thermal Zone 1,                         !- Name
  ,                                       !- Multiplier
  ,                                       !- Ceiling Height {m}
  ,                                       !- Volume {m3}
  ,                                       !- Floor Area {m2}
  ,                                       !- Zone Inside Convection Algorithm
  ,                                       !- Zone Outside Convection Algorithm
  ,                                       !- Zone Conditioning Equipment List Name
  {e1c032d7-9482-4462-9d44-55f54afd38c4}, !- Zone Air Inlet Port List
  {d0dc397c-e6c9-4b73-bcc0-c2503643962b}, !- Zone Air Exhaust Port List
  {20b92bb1-f78e-4cac-95c6-d764714526c9}, !- Zone Air Node Name
  {fe335f7b-d9b2-4844-8fe4-f70af2e243fd}, !- Zone Return Air Node Name
  ,                                       !- Primary Daylighting Control Name
  ,                                       !- Fraction of Zone Controlled by Primary Daylighting Control
  ,                                       !- Secondary Daylighting Control Name
  ,                                       !- Fraction of Zone Controlled by Secondary Daylighting Control
  ,                                       !- Illuminance Map Name
  ,                                       !- Group Rendering Name
  ,                                       !- Thermostat Name
  No;                                     !- Use Ideal Air Loads

OS:Node,
  {0b3e3c86-767d-425b-9714-56f02bc19d33}, !- Handle
  Node 10,                                !- Name
  {20b92bb1-f78e-4cac-95c6-d764714526c9}, !- Inlet Port
  ;                                       !- Outlet Port

OS:Connection,
  {20b92bb1-f78e-4cac-95c6-d764714526c9}, !- Handle
  {93490f7b-ecac-49ed-b140-61539190e8b1}, !- Name
  {14f8352b-8a45-4ebe-881b-339daf50ac1d}, !- Source Object
  11,                                     !- Outlet Port
  {0b3e3c86-767d-425b-9714-56f02bc19d33}, !- Target Object
  2;                                      !- Inlet Port

OS:PortList,
  {e1c032d7-9482-4462-9d44-55f54afd38c4}, !- Handle
  {138b6f1e-9ad6-49cb-aeeb-2728120403c8}, !- Name
  {14f8352b-8a45-4ebe-881b-339daf50ac1d}, !- HVAC Component
  {e72656bf-8376-43f8-bfe4-d9dc5cef1c1b}; !- Port 1

OS:PortList,
  {d0dc397c-e6c9-4b73-bcc0-c2503643962b}, !- Handle
  {57034063-91df-4213-ac82-0ad92f112594}, !- Name
  {14f8352b-8a45-4ebe-881b-339daf50ac1d}; !- HVAC Component

OS:Sizing:Zone,
  {8bd0d1fd-1c3a-40ee-a1e2-ba52cdfb4e77}, !- Handle
  {14f8352b-8a45-4ebe-881b-339daf50ac1d}, !- Zone or ZoneList Name
  SupplyAirTemperature,                   !- Zone Cooling Design Supply Air Temperature Input Method
  14,                                     !- Zone Cooling Design Supply Air Temperature {C}
  11.11,                                  !- Zone Cooling Design Supply Air Temperature Difference {deltaC}
  SupplyAirTemperature,                   !- Zone Heating Design Supply Air Temperature Input Method
  40,                                     !- Zone Heating Design Supply Air Temperature {C}
  11.11,                                  !- Zone Heating Design Supply Air Temperature Difference {deltaC}
  0.0085,                                 !- Zone Cooling Design Supply Air Humidity Ratio {kg-H2O/kg-air}
  0.008,                                  !- Zone Heating Design Supply Air Humidity Ratio {kg-H2O/kg-air}
  ,                                       !- Zone Heating Sizing Factor
  ,                                       !- Zone Cooling Sizing Factor
  DesignDay,                              !- Cooling Design Air Flow Method
  ,                                       !- Cooling Design Air Flow Rate {m3/s}
  ,                                       !- Cooling Minimum Air Flow per Zone Floor Area {m3/s-m2}
  ,                                       !- Cooling Minimum Air Flow {m3/s}
  ,                                       !- Cooling Minimum Air Flow Fraction
  DesignDay,                              !- Heating Design Air Flow Method
  ,                                       !- Heating Design Air Flow Rate {m3/s}
  ,                                       !- Heating Maximum Air Flow per Zone Floor Area {m3/s-m2}
  ,                                       !- Heating Maximum Air Flow {m3/s}
  ,                                       !- Heating Maximum Air Flow Fraction
  ,                                       !- Design Zone Air Distribution Effectiveness in Cooling Mode
  ,                                       !- Design Zone Air Distribution Effectiveness in Heating Mode
  No,                                     !- Account for Dedicated Outdoor Air System
  NeutralSupplyAir,                       !- Dedicated Outdoor Air System Control Strategy
  autosize,                               !- Dedicated Outdoor Air Low Setpoint Temperature for Design {C}
  autosize;                               !- Dedicated Outdoor Air High Setpoint Temperature for Design {C}

OS:ZoneHVAC:EquipmentList,
  {43bf0352-a2c4-4d05-acfb-af3009e3cd4f}, !- Handle
  Zone HVAC Equipment List 1,             !- Name
  {14f8352b-8a45-4ebe-881b-339daf50ac1d}, !- Thermal Zone
  {259f3b98-a38e-4f11-9db3-ec0a9c7a1663}, !- Zone Equipment 1
  1,                                      !- Zone Equipment Cooling Sequence 1
  1;                                      !- Zone Equipment Heating or No-Load Sequence 1

OS:Sizing:Zone,
  {56b8e770-c2db-48f2-95ca-3a52426cb318}, !- Handle
  {14f8352b-8a45-4ebe-881b-339daf50ac1d}, !- Zone or ZoneList Name
  SupplyAirTemperature,                   !- Zone Cooling Design Supply Air Temperature Input Method
  14,                                     !- Zone Cooling Design Supply Air Temperature {C}
  11.11,                                  !- Zone Cooling Design Supply Air Temperature Difference {deltaC}
  SupplyAirTemperature,                   !- Zone Heating Design Supply Air Temperature Input Method
  40,                                     !- Zone Heating Design Supply Air Temperature {C}
  11.11,                                  !- Zone Heating Design Supply Air Temperature Difference {deltaC}
  0.0085,                                 !- Zone Cooling Design Supply Air Humidity Ratio {kg-H2O/kg-air}
  0.008,                                  !- Zone Heating Design Supply Air Humidity Ratio {kg-H2O/kg-air}
  ,                                       !- Zone Heating Sizing Factor
  ,                                       !- Zone Cooling Sizing Factor
  DesignDay,                              !- Cooling Design Air Flow Method
  ,                                       !- Cooling Design Air Flow Rate {m3/s}
  ,                                       !- Cooling Minimum Air Flow per Zone Floor Area {m3/s-m2}
  ,                                       !- Cooling Minimum Air Flow {m3/s}
  ,                                       !- Cooling Minimum Air Flow Fraction
  DesignDay,                              !- Heating Design Air Flow Method
  ,                                       !- Heating Design Air Flow Rate {m3/s}
  ,                                       !- Heating Maximum Air Flow per Zone Floor Area {m3/s-m2}
  ,                                       !- Heating Maximum Air Flow {m3/s}
  ,                                       !- Heating Maximum Air Flow Fraction
  ,                                       !- Design Zone Air Distribution Effectiveness in Cooling Mode
  ,                                       !- Design Zone Air Distribution Effectiveness in Heating Mode
  No,                                     !- Account for Dedicated Outdoor Air System
  NeutralSupplyAir,                       !- Dedicated Outdoor Air System Control Strategy
  autosize,                               !- Dedicated Outdoor Air Low Setpoint Temperature for Design {C}
  autosize;                               !- Dedicated Outdoor Air High Setpoint Temperature for Design {C}

OS:AirTerminal:SingleDuct:Uncontrolled,
  {259f3b98-a38e-4f11-9db3-ec0a9c7a1663}, !- Handle
  AirTerminal:SingleDuct:Uncontrolled [#Q2pZJq], !- Name
  {a97398d3-3a19-4039-b3df-f16a540c35c3}, !- Availability Schedule Name
  {1648efe0-a408-42e3-bdc3-3faed2168bdb}, !- Inlet Air Node Name
  {d9e62c42-fdec-4f4b-84a8-6b7c6d3cf1b1}, !- Zone Supply Air Node Name
  AutoSize;                               !- Maximum Air Flow Rate {m3/s}

OS:Node,
  {540fdd09-5b70-4a70-93c3-844be85c3574}, !- Handle
  Node 11,                                !- Name
  {fe335f7b-d9b2-4844-8fe4-f70af2e243fd}, !- Inlet Port
  {1cb311fb-6b24-466c-abb3-b0586bf74a37}; !- Outlet Port

OS:Connection,
  {e72656bf-8376-43f8-bfe4-d9dc5cef1c1b}, !- Handle
  {75219b89-9a2f-477a-bc81-d6f4100d0019}, !- Name
  {bd845f7b-0d83-42aa-8f8d-6e9eff8f761b}, !- Source Object
  3,                                      !- Outlet Port
  {e1c032d7-9482-4462-9d44-55f54afd38c4}, !- Target Object
  3;                                      !- Inlet Port

OS:Connection,
  {fe335f7b-d9b2-4844-8fe4-f70af2e243fd}, !- Handle
  {04b05516-eb98-4bb9-96ee-46106d6eb0d9}, !- Name
  {14f8352b-8a45-4ebe-881b-339daf50ac1d}, !- Source Object
  12,                                     !- Outlet Port
  {540fdd09-5b70-4a70-93c3-844be85c3574}, !- Target Object
  2;                                      !- Inlet Port

OS:Connection,
  {1cb311fb-6b24-466c-abb3-b0586bf74a37}, !- Handle
  {420b0e15-138f-4e01-bc48-0a26a0da6b89}, !- Name
  {540fdd09-5b70-4a70-93c3-844be85c3574}, !- Source Object
  3,                                      !- Outlet Port
  {a93bc4bd-3a3e-45fc-8aeb-c354e09a95c7}, !- Target Object
  3;                                      !- Inlet Port

OS:Connection,
  {1648efe0-a408-42e3-bdc3-3faed2168bdb}, !- Handle
  {6231403b-b947-4e96-8cf4-061427682642}, !- Name
  {1c97fc0c-65c7-4a1d-8699-e749eefd673f}, !- Source Object
  3,                                      !- Outlet Port
  {259f3b98-a38e-4f11-9db3-ec0a9c7a1663}, !- Target Object
  3;                                      !- Inlet Port

OS:Connection,
  {d9e62c42-fdec-4f4b-84a8-6b7c6d3cf1b1}, !- Handle
  {cb465df0-8bf0-42b4-8f25-0708d3e3635b}, !- Name
  {259f3b98-a38e-4f11-9db3-ec0a9c7a1663}, !- Source Object
  4,                                      !- Outlet Port
  {bd845f7b-0d83-42aa-8f8d-6e9eff8f761b}, !- Target Object
  2;                                      !- Inlet Port

OS:PlantLoop,
  {68ebf77c-1177-4957-bf72-dfd10626d797}, !- Handle
  PlantLoop [#u8lQMH],                    !- Name
  Water,                                  !- Fluid Type
  0,                                      !- Glycol Concentration
  ,                                       !- User Defined Fluid Type
  ,                                       !- Plant Equipment Operation Heating Load
  ,                                       !- Plant Equipment Operation Cooling Load
  ,                                       !- Primary Plant Equipment Operation Scheme
  {3fd285e8-9cf6-441b-93b5-1166851c2189}, !- Loop Temperature Setpoint Node Name
  ,                                       !- Maximum Loop Temperature {C}
  ,                                       !- Minimum Loop Temperature {C}
  ,                                       !- Maximum Loop Flow Rate {m3/s}
  ,                                       !- Minimum Loop Flow Rate {m3/s}
  Autocalculate,                          !- Plant Loop Volume {m3}
  {ca0c8c20-340c-4fc1-982c-5161e1dc5993}, !- Plant Side Inlet Node Name
  {4da4ec19-34b6-4d45-868a-42e412511521}, !- Plant Side Outlet Node Name
  ,                                       !- Plant Side Branch List Name
  {20e6e903-edc4-4a31-af51-188612409b04}, !- Demand Side Inlet Node Name
  {0f91e883-1528-4120-b2fc-d838a2d2d08a}, !- Demand Side Outlet Node Name
  ,                                       !- Demand Side Branch List Name
  ,                                       !- Demand Side Connector List Name
  Optimal,                                !- Load Distribution Scheme
  {2c0b9d74-0441-4ea2-af9a-819285306eb0}, !- Availability Manager List Name
  ,                                       !- Plant Loop Demand Calculation Scheme