
OS:Version,
  {021afa26-2cae-4e6b-aac9-5a9055031dd2}, !- Handle
  2.4.0;                                  !- Version Identifier

! TrackingID:#[n44LI1]
OS:AirLoopHVAC,
  {da0cfdbd-8781-4e6e-a03a-db9eda0d5cd1}, !- Handle
  Air Loop HVAC 1,                        !- Name
  ,                                       !- Controller List Name
  {150d8908-4cde-47ae-ab63-37b93a11ab33}, !- Availability Schedule
  {617adfff-8a6d-484d-b28b-74aeb7170ada}, !- Availability Manager List Name
  AutoSize,                               !- Design Supply Air Flow Rate {m3/s}
  ,                                       !- Branch List Name
  ,                                       !- Connector List Name
  {de26e2aa-c50c-4319-aaac-54f3907cdd3f}, !- Supply Side Inlet Node Name
  {37ea7f58-6a43-40f4-89b6-dd456737978d}, !- Demand Side Outlet Node Name
  {4176892b-5e41-48b1-982e-11bc2123814f}, !- Demand Side Inlet Node A
  {2d2432ed-6d09-4de3-a429-7da8b6f61474}, !- Supply Side Outlet Node A
  ,                                       !- Demand Side Inlet Node B
  ,                                       !- Supply Side Outlet Node B
  ,                                       !- Return Air Bypass Flow Temperature Setpoint Schedule Name
  {90a0a39a-7059-45a0-8c21-d9fba418c81d}, !- Demand Mixer Name
  {380b3add-6683-4ced-9382-8b07a4dc61f5}, !- Demand Splitter A Name
  ,                                       !- Demand Splitter B Name
  ;                                       !- Supply Splitter Name

OS:Node,
  {4038ffbd-0ea2-4f84-8206-67e3c3a27886}, !- Handle
  Node 1,                                 !- Name
  {de26e2aa-c50c-4319-aaac-54f3907cdd3f}, !- Inlet Port
  {2959a8d3-ce1a-4e6c-89a6-a11fb0c9a5cf}; !- Outlet Port

OS:Node,
  {5f942dea-f452-4491-ae4a-416d6d46dad9}, !- Handle
  Node 2,                                 !- Name
  {455e3373-3976-41a8-ab8a-fa27eade846b}, !- Inlet Port
  {2d2432ed-6d09-4de3-a429-7da8b6f61474}; !- Outlet Port

OS:Connection,
  {de26e2aa-c50c-4319-aaac-54f3907cdd3f}, !- Handle
  {cc7e9a10-b03e-4113-8ea3-dfe58f6c7b26}, !- Name
  {da0cfdbd-8781-4e6e-a03a-db9eda0d5cd1}, !- Source Object
  8,                                      !- Outlet Port
  {4038ffbd-0ea2-4f84-8206-67e3c3a27886}, !- Target Object
  2;                                      !- Inlet Port

OS:Connection,
  {2d2432ed-6d09-4de3-a429-7da8b6f61474}, !- Handle
  {8fe6fba5-21e5-48ec-a244-2ce22849ac61}, !- Name
  {5f942dea-f452-4491-ae4a-416d6d46dad9}, !- Source Object
  3,                                      !- Outlet Port
  {da0cfdbd-8781-4e6e-a03a-db9eda0d5cd1}, !- Target Object
  11;                                     !- Inlet Port

OS:Node,
  {412dca9f-453f-4c4c-86e3-718cecfeec32}, !- Handle
  Node 3,                                 !- Name
  {4176892b-5e41-48b1-982e-11bc2123814f}, !- Inlet Port
  {855cef35-e8c5-45e4-8362-ce99da5bb12d}; !- Outlet Port

OS:Node,
  {9700230e-588c-453d-85e0-9785f66957fc}, !- Handle
  Node 4,                                 !- Name
  {4de2d71b-c2ab-4e3f-8a00-7c0def9e13c3}, !- Inlet Port
  {37ea7f58-6a43-40f4-89b6-dd456737978d}; !- Outlet Port

OS:Node,
  {84b6466d-6279-4c82-8f06-a47d1dd20fd7}, !- Handle
  Node 5,                                 !- Name
  {45c11345-d0dd-4bb0-82c1-6fc2f23943d7}, !- Inlet Port
  {89c22252-5078-48e5-b355-526ac0b41d51}; !- Outlet Port

OS:Connection,
  {4176892b-5e41-48b1-982e-11bc2123814f}, !- Handle
  {70251067-3f58-462c-a66f-1e5e55a70030}, !- Name
  {da0cfdbd-8781-4e6e-a03a-db9eda0d5cd1}, !- Source Object
  10,                                     !- Outlet Port
  {412dca9f-453f-4c4c-86e3-718cecfeec32}, !- Target Object
  2;                                      !- Inlet Port

OS:Connection,
  {37ea7f58-6a43-40f4-89b6-dd456737978d}, !- Handle
  {8f6b3bb8-4eff-4c29-8a79-d9f42c5b462d}, !- Name
  {9700230e-588c-453d-85e0-9785f66957fc}, !- Source Object
  3,                                      !- Outlet Port
  {da0cfdbd-8781-4e6e-a03a-db9eda0d5cd1}, !- Target Object
  9;                                      !- Inlet Port

OS:AirLoopHVAC:ZoneSplitter,
  {380b3add-6683-4ced-9382-8b07a4dc61f5}, !- Handle
  Air Loop HVAC Zone Splitter 1,          !- Name
  {855cef35-e8c5-45e4-8362-ce99da5bb12d}, !- Inlet Node Name
  {a451f1c1-84c2-4f16-973d-1c0ed5fdf060}; !- Outlet Node Name 1

OS:AirLoopHVAC:ZoneMixer,
  {90a0a39a-7059-45a0-8c21-d9fba418c81d}, !- Handle
  Air Loop HVAC Zone Mixer 1,             !- Name
  {4de2d71b-c2ab-4e3f-8a00-7c0def9e13c3}, !- Outlet Node Name
  {4c339cb5-fb25-48b1-be6d-90f58f3f9195}; !- Inlet Node Name 1

OS:Connection,
  {855cef35-e8c5-45e4-8362-ce99da5bb12d}, !- Handle
  {be13f224-4500-488c-b0fa-7bb4c5a3121d}, !- Name
  {412dca9f-453f-4c4c-86e3-718cecfeec32}, !- Source Object
  3,                                      !- Outlet Port
  {380b3add-6683-4ced-9382-8b07a4dc61f5}, !- Target Object
  2;                                      !- Inlet Port

OS:Connection,
  {4de2d71b-c2ab-4e3f-8a00-7c0def9e13c3}, !- Handle
  {2caf9013-2ab1-4b09-ba27-7eb1da6cb1a4}, !- Name
  {90a0a39a-7059-45a0-8c21-d9fba418c81d}, !- Source Object
  2,                                      !- Outlet Port
  {9700230e-588c-453d-85e0-9785f66957fc}, !- Target Object
  2;                                      !- Inlet Port

OS:Sizing:System,
  {7dc4a782-6509-4fbb-9e68-ffe761114bba}, !- Handle
  {da0cfdbd-8781-4e6e-a03a-db9eda0d5cd1}, !- AirLoop Name
  Sensible,                               !- Type of Load to Size On
  Autosize,                               !- Design Outdoor Air Flow Rate {m3/s}
  0.3,                                    !- Minimum System Air Flow Ratio
  7,                                      !- Preheat Design Temperature {C}
  0.008,                                  !- Preheat Design Humidity Ratio {kg-H2O/kg-Air}
  12.8,                                   !- Precool Design Temperature {C}
  0.008,                                  !- Precool Design Humidity Ratio {kg-H2O/kg-Air}
  12.8,                                   !- Central Cooling Design Supply Air Temperature {C}
  16.7,                                   !- Central Heating Design Supply Air Temperature {C}
  NonCoincident,                          !- Sizing Option
  Yes,                                    !- 100% Outdoor Air in Cooling
  Yes,                                    !- 100% Outdoor Air in Heating
  0.0085,                                 !- Central Cooling Design Supply Air Humidity Ratio {kg-H2O/kg-Air}
  0.008,                                  !- Central Heating Design Supply Air Humidity Ratio {kg-H2O/kg-Air}
  DesignDay,                              !- Cooling Design Air Flow Method
  0,                                      !- Cooling Design Air Flow Rate {m3/s}
  DesignDay,                              !- Heating Design Air Flow Method
  0,                                      !- Heating Design Air Flow Rate {m3/s}
  ZoneSum,                                !- System Outdoor Air Method
  1,                                      !- Zone Maximum Outdoor Air Fraction {dimensionless}
  0.0099676501,                           !- Cooling Supply Air Flow Rate Per Floor Area {m3/s-m2}
  1,                                      !- Cooling Fraction of Autosized Cooling Supply Air Flow Rate
  3.9475456e-005,                         !- Cooling Supply Air Flow Rate Per Unit Cooling Capacity {m3/s-W}
  0.0099676501,                           !- Heating Supply Air Flow Rate Per Floor Area {m3/s-m2}
  1,                                      !- Heating Fraction of Autosized Heating Supply Air Flow Rate
  1,                                      !- Heating Fraction of Autosized Cooling Supply Air Flow Rate
  3.1588213e-005,                         !- Heating Supply Air Flow Rate Per Unit Heating Capacity {m3/s-W}
  CoolingDesignCapacity,                  !- Cooling Design Capacity Method
  autosize,                               !- Cooling Design Capacity {W}
  234.7,                                  !- Cooling Design Capacity Per Floor Area {W/m2}
  1,                                      !- Fraction of Autosized Cooling Design Capacity
  HeatingDesignCapacity,                  !- Heating Design Capacity Method
  autosize,                               !- Heating Design Capacity {W}
  157,                                    !- Heating Design Capacity Per Floor Area {W/m2}
  1,                                      !- Fraction of Autosized Heating Design Capacity
  OnOff;                                  !- Central Cooling Capacity Control Method

OS:Schedule:Constant,
  {150d8908-4cde-47ae-ab63-37b93a11ab33}, !- Handle
  Always On Discrete,                     !- Name
  {e6854a53-8cb5-4772-af6e-c1cd71eb6c51}, !- Schedule Type Limits Name
  1;                                      !- Value

OS:ScheduleTypeLimits,
  {e6854a53-8cb5-4772-af6e-c1cd71eb6c51}, !- Handle
  OnOff,                                  !- Name
  0,                                      !- Lower Limit Value
  1,                                      !- Upper Limit Value
  Discrete,                               !- Numeric Type
  Availability;                           !- Unit Type

OS:AvailabilityManagerAssignmentList,
  {617adfff-8a6d-484d-b28b-74aeb7170ada}, !- Handle
  Air Loop HVAC 1 AvailabilityManagerAssignmentList; !- Name

! TrackingID:#[vZdcho]
OS:Coil:Heating:Water,
  {f2cc4ab5-38a8-4744-86f1-7df6c11c9cb2}, !- Handle
  Coil Heating Water 1,                   !- Name
  {150d8908-4cde-47ae-ab63-37b93a11ab33}, !- Availability Schedule Name
  ,                                       !- U-Factor Times Area Value {W/K}
  ,                                       !- Maximum Water Flow Rate {m3/s}
  {b4da9ce9-5537-4beb-acac-2905ffead775}, !- Water Inlet Node Name
  {ddedb95b-349b-4b05-8b1f-0a918179f556}, !- Water Outlet Node Name
  {2959a8d3-ce1a-4e6c-89a6-a11fb0c9a5cf}, !- Air Inlet Node Name
  {8af16b26-7f95-4864-9279-577a3a2e3494}, !- Air Outlet Node Name
  ,                                       !- Performance Input Method
  ,                                       !- Rated Capacity {W}
  ,                                       !- Rated Inlet Water Temperature {C}
  ,                                       !- Rated Inlet Air Temperature {C}
  ,                                       !- Rated Outlet Water Temperature {C}
  ,                                       !- Rated Outlet Air Temperature {C}
  ;                                       !- Rated Ratio for Air and Water Convection

OS:Connection,
  {2959a8d3-ce1a-4e6c-89a6-a11fb0c9a5cf}, !- Handle
  {cfbfbc05-81a2-4073-885f-f064c803ecdd}, !- Name
  {4038ffbd-0ea2-4f84-8206-67e3c3a27886}, !- Source Object
  3,                                      !- Outlet Port
  {f2cc4ab5-38a8-4744-86f1-7df6c11c9cb2}, !- Target Object
  7;                                      !- Inlet Port

! TrackingID:#[E90wF5]
OS:Fan:ConstantVolume,
  {df5b75c8-1dc1-45cb-ba6a-257a1c307b8b}, !- Handle
  Fan Constant Volume 1,                  !- Name
  {150d8908-4cde-47ae-ab63-37b93a11ab33}, !- Availability Schedule Name
  ,                                       !- Fan Efficiency
  ,                                       !- Pressure Rise {Pa}
  AutoSize,                               !- Maximum Flow Rate {m3/s}
  ,                                       !- Motor Efficiency
  ,                                       !- Motor In Airstream Fraction
  {e3e2a5f5-063c-46f6-9727-e63e5ff6b3e3}, !- Air Inlet Node Name
  {455e3373-3976-41a8-ab8a-fa27eade846b}, !- Air Outlet Node Name
  ;                                       !- End-Use Subcategory

OS:Node,
  {b8fb7ba7-df81-4e8f-b201-3fdc096aae35}, !- Handle
  Node 6,                                 !- Name
  {8af16b26-7f95-4864-9279-577a3a2e3494}, !- Inlet Port
  {e3e2a5f5-063c-46f6-9727-e63e5ff6b3e3}; !- Outlet Port

OS:Connection,
  {8af16b26-7f95-4864-9279-577a3a2e3494}, !- Handle
  {c1b5a64b-1a40-4b2a-9d3f-7e1f5490d091}, !- Name
  {f2cc4ab5-38a8-4744-86f1-7df6c11c9cb2}, !- Source Object
  8,                                      !- Outlet Port
  {b8fb7ba7-df81-4e8f-b201-3fdc096aae35}, !- Target Object
  2;                                      !- Inlet Port

OS:Connection,
  {e3e2a5f5-063c-46f6-9727-e63e5ff6b3e3}, !- Handle
  {9db45de2-e776-4890-a047-7c45bc77bfa8}, !- Name
  {b8fb7ba7-df81-4e8f-b201-3fdc096aae35}, !- Source Object
  3,                                      !- Outlet Port
  {df5b75c8-1dc1-45cb-ba6a-257a1c307b8b}, !- Target Object
  8;                                      !- Inlet Port

OS:Connection,
  {455e3373-3976-41a8-ab8a-fa27eade846b}, !- Handle
  {647db958-ee92-4c11-9b72-e6b96f17aa86}, !- Name
  {df5b75c8-1dc1-45cb-ba6a-257a1c307b8b}, !- Source Object
  9,                                      !- Outlet Port
  {5f942dea-f452-4491-ae4a-416d6d46dad9}, !- Target Object
  2;                                      !- Inlet Port

! TrackingID:#[7rwfr0]
OS:ThermalZone,
  {22c8192e-e62e-422c-8da0-a0370369f5de}, !- Handle
  zone_3,                                 !- Name
  ,                                       !- Multiplier
  ,                                       !- Ceiling Height {m}
  ,                                       !- Volume {m3}
  ,                                       !- Floor Area {m2}
  ,                                       !- Zone Inside Convection Algorithm
  ,                                       !- Zone Outside Convection Algorithm
  ,                                       !- Zone Conditioning Equipment List Name
  {904bc438-7f54-4ce2-afa5-1aa22efafcdd}, !- Zone Air Inlet Port List
  {0a789d82-428b-4438-9abb-bbe4648f163b}, !- Zone Air Exhaust Port List
  {c3642fe8-321e-40a2-bca0-1aea5e700967}, !- Zone Air Node Name
  {2804c45b-e98f-4fad-a059-0c154a13c91b}, !- Zone Return Air Node Name
  ,                                       !- Primary Daylighting Control Name
  ,                                       !- Fraction of Zone Controlled by Primary Daylighting Control
  ,                                       !- Secondary Daylighting Control Name
  ,                                       !- Fraction of Zone Controlled by Secondary Daylighting Control
  ,                                       !- Illuminance Map Name
  ,                                       !- Group Rendering Name
  ,                                       !- Thermostat Name
  No;                                     !- Use Ideal Air Loads

OS:Node,
  {c760aa79-1c2d-43de-a638-06a7e47c060a}, !- Handle
  Node 7,                                 !- Name
  {c3642fe8-321e-40a2-bca0-1aea5e700967}, !- Inlet Port
  ;                                       !- Outlet Port

OS:Connection,
  {c3642fe8-321e-40a2-bca0-1aea5e700967}, !- Handle
  {08515cfb-bd13-4c65-b47b-9684c7d96cd7}, !- Name
  {22c8192e-e62e-422c-8da0-a0370369f5de}, !- Source Object
  11,                                     !- Outlet Port
  {c760aa79-1c2d-43de-a638-06a7e47c060a}, !- Target Object
  2;                                      !- Inlet Port

OS:PortList,
  {904bc438-7f54-4ce2-afa5-1aa22efafcdd}, !- Handle
  {7d98d5af-4aef-46e9-84f6-6c21f2d2fe60}, !- Name
  {22c8192e-e62e-422c-8da0-a0370369f5de}, !- HVAC Component
  {89c22252-5078-48e5-b355-526ac0b41d51}; !- Port 1

OS:PortList,
  {0a789d82-428b-4438-9abb-bbe4648f163b}, !- Handle
  {cac45ca6-a913-4382-ba4c-7bb78ce0e339}, !- Name
  {22c8192e-e62e-422c-8da0-a0370369f5de}; !- HVAC Component

OS:Sizing:Zone,
  {49cafd45-19ed-4655-8799-c4251fb4fdb2}, !- Handle
  {22c8192e-e62e-422c-8da0-a0370369f5de}, !- Zone or ZoneList Name
  SupplyAirTemperature,                   !- Zone Cooling Design Supply Air Temperature Input Method
  14,                                     !- Zone Cooling Design Supply Air Temperature {C}
  11.11,                                  !- Zone Cooling Design Supply Air Temperature Difference {deltaC}
  SupplyAirTemperature,                   !- Zone Heating Design Supply Air Temperature Input Method
  40,                                     !- Zone Heating Design Supply Air Temperature {C}
  11.11,                                  !- Zone Heating Design Supply Air Temperature Difference {deltaC}
  0.0085,                                 !- Zone Cooling Design Supply Air Humidity Ratio {kg-H2O/kg-air}
  0.008,                                  !- Zone Heating Design Supply Air Humidity Ratio {kg-H2O/kg-air}
  ,                                       !- Zone Heating Sizing Factor
  ,                                       !- Zone Cooling Sizing Factor
  DesignDay,                              !- Cooling Design Air Flow Method
  ,                                       !- Cooling Design Air Flow Rate {m3/s}
  ,                                       !- Cooling Minimum Air Flow per Zone Floor Area {m3/s-m2}
  ,                                       !- Cooling Minimum Air Flow {m3/s}
  ,                                       !- Cooling Minimum Air Flow Fraction
  DesignDay,                              !- Heating Design Air Flow Method
  ,                                       !- Heating Design Air Flow Rate {m3/s}
  ,                                       !- Heating Maximum Air Flow per Zone Floor Area {m3/s-m2}
  ,                                       !- Heating Maximum Air Flow {m3/s}
  ,                                       !- Heating Maximum Air Flow Fraction
  ,                                       !- Design Zone Air Distribution Effectiveness in Cooling Mode
  ,                                       !- Design Zone Air Distribution Effectiveness in Heating Mode
  No,                                     !- Account for Dedicated Outdoor Air System
  NeutralSupplyAir,                       !- Dedicated Outdoor Air System Control Strategy
  autosize,                               !- Dedicated Outdoor Air Low Setpoint Temperature for Design {C}
  autosize;                               !- Dedicated Outdoor Air High Setpoint Temperature for Design {C}

OS:ZoneHVAC:EquipmentList,
  {5bc1e264-2a99-4ff7-8280-1a4a1ebf2ff6}, !- Handle
  Zone HVAC Equipment List 1,             !- Name
  {22c8192e-e62e-422c-8da0-a0370369f5de}, !- Thermal Zone
  {18aba8b7-d280-4e7b-9f35-1fde443abb7f}, !- Zone Equipment 1
  1,                                      !- Zone Equipment Cooling Sequence 1
  1,                                      !- Zone Equipment Heating or No-Load Sequence 1
  {53243479-b815-44c2-944e-dccbfae4615c}, !- Zone Equipment 2
  2,                                      !- Zone Equipment Cooling Sequence 2
  2;                                      !- Zone Equipment Heating or No-Load Sequence 2

! TrackingID:#[K3PCbp]
OS:Sizing:Zone,
  {a6fb82d5-fe95-4002-8a9d-611a8ba57e77}, !- Handle
  {22c8192e-e62e-422c-8da0-a0370369f5de}, !- Zone or ZoneList Name
  SupplyAirTemperature,                   !- Zone Cooling Design Supply Air Temperature Input Method
  14,                                     !- Zone Cooling Design Supply Air Temperature {C}
  11.11,                                  !- Zone Cooling Design Supply Air Temperature Difference {deltaC}
  SupplyAirTemperature,                   !- Zone Heating Design Supply Air Temperature Input Method
  40,                                     !- Zone Heating Design Supply Air Temperature {C}
  11.11,                                  !- Zone Heating Design Supply Air Temperature Difference {deltaC}
  0.0085,                                 !- Zone Cooling Design Supply Air Humidity Ratio {kg-H2O/kg-air}
  0.008,                                  !- Zone Heating Design Supply Air Humidity Ratio {kg-H2O/kg-air}
  ,                                       !- Zone Heating Sizing Factor
  ,                                       !- Zone Cooling Sizing Factor
  DesignDay,                              !- Cooling Design Air Flow Method
  ,                                       !- Cooling Design Air Flow Rate {m3/s}
  ,                                       !- Cooling Minimum Air Flow per Zone Floor Area {m3/s-m2}
  ,                                       !- Cooling Minimum Air Flow {m3/s}
  ,                                       !- Cooling Minimum Air Flow Fraction
  DesignDay,                              !- Heating Design Air Flow Method
  ,                                       !- Heating Design Air Flow Rate {m3/s}
  ,                                       !- Heating Maximum Air Flow per Zone Floor Area {m3/s-m2}
  ,                                       !- Heating Maximum Air Flow {m3/s}
  ,                                       !- Heating Maximum Air Flow Fraction
  ,                                       !- Design Zone Air Distribution Effectiveness in Cooling Mode
  ,                                       !- Design Zone Air Distribution Effectiveness in Heating Mode
  No,                                     !- Account for Dedicated Outdoor Air System
  NeutralSupplyAir,                       !- Dedicated Outdoor Air System Control Strategy
  autosize,                               !- Dedicated Outdoor Air Low Setpoint Temperature for Design {C}
  autosize;                               !- Dedicated Outdoor Air High Setpoint Temperature for Design {C}

! TrackingID:#[D71yHZ]
OS:Fan:VariableVolume,
  {83240629-847b-4da1-8439-e27006b55ea8}, !- Handle
  Fan Variable Volume 1,                  !- Name
  {150d8908-4cde-47ae-ab63-37b93a11ab33}, !- Availability Schedule Name
  0.6045,                                 !- Fan Efficiency
  1017.592,                               !- Pressure Rise {Pa}
  Autosize,                               !- Maximum Flow Rate {m3/s}
  FixedFlowRate,                          !- Fan Power Minimum Flow Rate Input Method
  0,                                      !- Fan Power Minimum Flow Fraction
  0,                                      !- Fan Power Minimum Air Flow Rate {m3/s}
  0.93,                                   !- Motor Efficiency
  1,                                      !- Motor In Airstream Fraction
  0.040759894,                            !- Fan Power Coefficient 1
  0.08804497,                             !- Fan Power Coefficient 2
  -0.07292612,                            !- Fan Power Coefficient 3
  0.943739823,                            !- Fan Power Coefficient 4
  0,                                      !- Fan Power Coefficient 5
  ,                                       !- Air Inlet Node Name
  ,                                       !- Air Outlet Node Name
  ;                                       !- End-Use Subcategory

! TrackingID:#[fNWkud]
OS:Coil:Heating:Water,
  {0fa78490-8e0a-4ae5-99a8-c7b5f74ffab8}, !- Handle
  Coil Heating Water 2,                   !- Name
  {150d8908-4cde-47ae-ab63-37b93a11ab33}, !- Availability Schedule Name
  ,                                       !- U-Factor Times Area Value {W/K}
  ,                                       !- Maximum Water Flow Rate {m3/s}
  {c08c72fd-2d91-44db-996f-bbc1d140bf80}, !- Water Inlet Node Name
  {ad2ef448-bc23-4b2e-8067-5e192b75c366}, !- Water Outlet Node Name
  ,                                       !- Air Inlet Node Name
  ,                                       !- Air Outlet Node Name
  ,                                       !- Performance Input Method
  ,                                       !- Rated Capacity {W}
  ,                                       !- Rated Inlet Water Temperature {C}
  ,                                       !- Rated Inlet Air Temperature {C}
  ,                                       !- Rated Outlet Water Temperature {C}
  ,                                       !- Rated Outlet Air Temperature {C}
  ;                                       !- Rated Ratio for Air and Water Convection

! TrackingID:#[LGIBa9]
OS:ZoneHVAC:UnitHeater,
  {18aba8b7-d280-4e7b-9f35-1fde443abb7f}, !- Handle
  Zone HVAC Unit Heater 1,                !- Name
  {150d8908-4cde-47ae-ab63-37b93a11ab33}, !- Availability Schedule Name
  ,                                       !- Air Inlet Node Name
  ,                                       !- Air Outlet Node Name
  {83240629-847b-4da1-8439-e27006b55ea8}, !- Supply Air Fan Name
  autosize,                               !- Maximum Supply Air Flow Rate {m3/s}
  OnOff,                                  !- Fan Control Type
  {0fa78490-8e0a-4ae5-99a8-c7b5f74ffab8}, !- Heating Coil Name
  ,                                       !- Maximum Hot Water Flow Rate {m3/s}
  0,                                      !- Minimum Hot Water Flow Rate {m3/s}
  0.001,                                  !- Heating Convergence Tolerance
  ;                                       !- Availability Manager List Name

! TrackingID:#[9JWPpt]
OS:Coil:Heating:Water,
  {698237af-9002-461a-bf21-2ee4d11a353a}, !- Handle
  Coil Heating Water 3,                   !- Name
  {150d8908-4cde-47ae-ab63-37b93a11ab33}, !- Availability Schedule Name
  ,                                       !- U-Factor Times Area Value {W/K}
  ,                                       !- Maximum Water Flow Rate {m3/s}
  {d8d939d3-370e-4d70-ba62-df5f18cd3926}, !- Water Inlet Node Name
  {ef152d22-66b6-4391-810d-efcb8c883627}, !- Water Outlet Node Name
  ,                                       !- Air Inlet Node Name
  ,                                       !- Air Outlet Node Name
  ,                                       !- Performance Input Method
  ,                                       !- Rated Capacity {W}
  ,                                       !- Rated Inlet Water Temperature {C}
  ,                                       !- Rated Inlet Air Temperature {C}
  ,                                       !- Rated Outlet Water Temperature {C}
  ,                                       !- Rated Outlet Air Temperature {C}
  ;                                       !- Rated Ratio for Air and Water Convection

! TrackingID:#[GNVfHv]
OS:AirTerminal:SingleDuct:VAV:Reheat,
  {53243479-b815-44c2-944e-dccbfae4615c}, !- Handle
  Air Terminal Single Duct VAV Reheat 1,  !- Name
  {150d8908-4cde-47ae-ab63-37b93a11ab33}, !- Availability Schedule Name
  {4944ff60-4844-4829-9ab4-5f762709a54f}, !- Air Inlet Node Name
  AutoSize,                               !- Maximum Air Flow Rate {m3/s}
  Constant,                               !- Zone Minimum Air Flow Input Method
  0.3,                                    !- Constant Minimum Air Flow Fraction
  0,                                      !- Fixed Minimum Air Flow Rate {m3/s}
  ,                                       !- Minimum Air Flow Fraction Schedule Name
  {698237af-9002-461a-bf21-2ee4d11a353a}, !- Reheat Coil Name
  AutoSize,                               !- Maximum Hot Water or Steam Flow Rate {m3/s}
  0,                                      !- Minimum Hot Water or Steam Flow Rate {m3/s}
  {45c11345-d0dd-4bb0-82c1-6fc2f23943d7}, !- Air Outlet Node Name
  0.001,                                  !- Convergence Tolerance
  Normal,                                 !- Damper Heating Action
  AutoSize,                               !- Maximum Flow per Zone Floor Area During Reheat {m3/s-m2}
  AutoSize,                               !- Maximum Flow Fraction During Reheat
  35,                                     !- Maximum Reheat Air Temperature {C}
  No;                                     !- Control For Outdoor Air

OS:Node,
  {83375afc-0014-4e74-a3d5-8b0afb75ccf0}, !- Handle
  Node 8,                                 !- Name
  {2804c45b-e98f-4fad-a059-0c154a13c91b}, !- Inlet Port
  {4c339cb5-fb25-48b1-be6d-90f58f3f9195}; !- Outlet Port

OS:Connection,
  {89c22252-5078-48e5-b355-526ac0b41d51}, !- Handle
  {a75aa4a6-e805-4f97-9b51-b88a7f48ecd0}, !- Name
  {84b6466d-6279-4c82-8f06-a47d1dd20fd7}, !- Source Object
  3,                                      !- Outlet Port
  {904bc438-7f54-4ce2-afa5-1aa22efafcdd}, !- Target Object
  3;                                      !- Inlet Port

OS:Connection,
  {2804c45b-e98f-4fad-a059-0c154a13c91b}, !- Handle
  {c2954f8f-daa9-420d-8ee4-294ee2b45ad6}, !- Name
  {22c8192e-e62e-422c-8da0-a0370369f5de}, !- Source Object
  12,                                     !- Outlet Port
  {83375afc-0014-4e74-a3d5-8b0afb75ccf0}, !- Target Object
  2;                                      !- Inlet Port

OS:Connection,
  {4c339cb5-fb25-48b1-be6d-90f58f3f9195}, !- Handle
  {26e2246c-44da-4873-be03-418d99387ea4}, !- Name
  {83375afc-0014-4e74-a3d5-8b0afb75ccf0}, !- Source Object
  3,                                      !- Outlet Port
  {90a0a39a-7059-45a0-8c21-d9fba418c81d}, !- Target Object
  3;                                      !- Inlet Port

OS:Node,
  {4a7b72f0-e1d2-42bf-806b-c8078af59ae6}, !- Handle
  Node 9,                                 !- Name
  {a451f1c1-84c2-4f16-973d-1c0ed5fdf060}, !- Inlet Port
  {4944ff60-4844-4829-9ab4-5f762709a54f}; !- Outlet Port

OS:Connection,
  {a451f1c1-84c2-4f16-973d-1c0ed5fdf060}, !- Handle
  {2a9c1fbb-ff4d-44d5-90c5-d87e4bd54daa}, !- Name
  {380b3add-6683-4ced-9382-8b07a4dc61f5}, !- Source Object
  3,                                      !- Outlet Port
  {4a7b72f0-e1d2-42bf-806b-c8078af59ae6}, !- Target Object
  2;                                      !- Inlet Port

OS:Connection,
  {4944ff60-4844-4829-9ab4-5f762709a54f}, !- Handle
  {485d1494-727f-420f-9fb3-56b2afbfe98b}, !- Name
  {4a7b72f0-e1d2-42bf-806b-c8078af59ae6}, !- Source Object
  3,                                      !- Outlet Port
  {53243479-b815-44c2-944e-dccbfae4615c}, !- Target Object
  3;                                      !- Inlet Port

OS:Connection,
  {45c11345-d0dd-4bb0-82c1-6fc2f23943d7}, !- Handle
  {302be663-3216-40b8-a83f-b490f30345cf}, !- Name
  {53243479-b815-44c2-944e-dccbfae4615c}, !- Source Object
  12,                                     !- Outlet Port
  {84b6466d-6279-4c82-8f06-a47d1dd20fd7}, !- Target Object
  2;                                      !- Inlet Port

! TrackingID:#[sE1517]
OS:PlantLoop,
  {9f416444-cdb3-42cd-8f96-2c0f5f545d8a}, !- Handle
  Hot Water Loop,                         !- Name
  Water,                                  !- Fluid Type
  0,                                      !- Glycol Concentration
  ,                                       !- User Defined Fluid Type