
OS:Version,
  {15cf4026-7fde-4d6e-88ff-1e5b7d92e306}, !- Handle
  2.4.0;                                  !- Version Identifier

! TrackingID:#[BP8TIi]
OS:AirLoopHVAC,
  {33ed9bc2-2536-4c05-8e5b-24f38a515dde}, !- Handle
  Air Loop HVAC 1,                        !- Name
  ,                                       !- Controller List Name
  {12c74134-c359-4541-8e86-dca3df47ae7a}, !- Availability Schedule
  {ec617d3b-6dce-4915-883c-d375b76210b7}, !- Availability Manager List Name
  AutoSize,                               !- Design Supply Air Flow Rate {m3/s}
  ,                                       !- Branch List Name
  ,                                       !- Connector List Name
  {a0ddfddd-2979-4153-87c7-69555c2d74ac}, !- Supply Side Inlet Node Name
  {5b509395-5435-4a7e-a60e-af1b7f62af61}, !- Demand Side Outlet Node Name
  {30a38708-cacc-4faa-9e32-3077b2cedd27}, !- Demand Side Inlet Node A
  {b627333a-db98-4b44-959e-0adfb4e93f0e}, !- Supply Side Outlet Node A
  ,                                       !- Demand Side Inlet Node B
  ,                                       !- Supply Side Outlet Node B
  ,                                       !- Return Air Bypass Flow Temperature Setpoint Schedule Name
  {99b4d760-0fef-4e53-bfb8-f445fc96539b}, !- Demand Mixer Name
  {89021f61-269d-4954-9e55-02dc417d3aa2}, !- Demand Splitter A Name
  ,                                       !- Demand Splitter B Name
  ;                                       !- Supply Splitter Name

OS:Node,
  {79c10bd1-ffc0-4601-8647-b721f7c833eb}, !- Handle
  Node 1,                                 !- Name
  {a0ddfddd-2979-4153-87c7-69555c2d74ac}, !- Inlet Port
  {0c7c253d-3652-4a76-8e6b-0ce9c2c5e495}; !- Outlet Port

OS:Node,
  {9e3793bd-177c-4986-a8ad-1385cc7ef120}, !- Handle
  Node 2,                                 !- Name
  {0a9a3f40-7168-49c3-8208-a8ad2f7b6337}, !- Inlet Port
  {b627333a-db98-4b44-959e-0adfb4e93f0e}; !- Outlet Port

OS:Connection,
  {a0ddfddd-2979-4153-87c7-69555c2d74ac}, !- Handle
  {61f4c75d-173b-4fb6-a4f7-cf2a6694f5ec}, !- Name
  {33ed9bc2-2536-4c05-8e5b-24f38a515dde}, !- Source Object
  8,                                      !- Outlet Port
  {79c10bd1-ffc0-4601-8647-b721f7c833eb}, !- Target Object
  2;                                      !- Inlet Port

OS:Connection,
  {b627333a-db98-4b44-959e-0adfb4e93f0e}, !- Handle
  {f3706e36-a51d-4049-8455-75feeb7c9280}, !- Name
  {9e3793bd-177c-4986-a8ad-1385cc7ef120}, !- Source Object
  3,                                      !- Outlet Port
  {33ed9bc2-2536-4c05-8e5b-24f38a515dde}, !- Target Object
  11;                                     !- Inlet Port

OS:Node,
  {09aece1d-cd84-4bc0-8fa7-c732648c81f1}, !- Handle
  Node 3,                                 !- Name
  {30a38708-cacc-4faa-9e32-3077b2cedd27}, !- Inlet Port
  {9269cdaf-d4bb-48bb-9918-9c98e5dfb9e6}; !- Outlet Port

OS:Node,
  {3cd619e8-24f9-40cd-9dde-21bed559254d}, !- Handle
  Node 4,                                 !- Name
  {63426881-5fe4-40cf-82fb-17ebc6583cec}, !- Inlet Port
  {5b509395-5435-4a7e-a60e-af1b7f62af61}; !- Outlet Port

OS:Node,
  {154897d0-fe3c-4c60-8018-e588f59fbb6c}, !- Handle
  Node 5,                                 !- Name
  {9673b6c8-2ba9-4f46-91cb-761f76cd3b45}, !- Inlet Port
  {3a15e0dc-e662-45a3-9456-c9864b16d6e2}; !- Outlet Port

OS:Connection,
  {30a38708-cacc-4faa-9e32-3077b2cedd27}, !- Handle
  {852fed5e-e5c1-4284-9174-2fe1b60962cb}, !- Name
  {33ed9bc2-2536-4c05-8e5b-24f38a515dde}, !- Source Object
  10,                                     !- Outlet Port
  {09aece1d-cd84-4bc0-8fa7-c732648c81f1}, !- Target Object
  2;                                      !- Inlet Port

OS:Connection,
  {5b509395-5435-4a7e-a60e-af1b7f62af61}, !- Handle
  {941ea7ed-f87d-4559-9a3a-09aad80f473b}, !- Name
  {3cd619e8-24f9-40cd-9dde-21bed559254d}, !- Source Object
  3,                                      !- Outlet Port
  {33ed9bc2-2536-4c05-8e5b-24f38a515dde}, !- Target Object
  9;                                      !- Inlet Port

OS:AirLoopHVAC:ZoneSplitter,
  {89021f61-269d-4954-9e55-02dc417d3aa2}, !- Handle
  Air Loop HVAC Zone Splitter 1,          !- Name
  {9269cdaf-d4bb-48bb-9918-9c98e5dfb9e6}, !- Inlet Node Name
  {dca82d3b-458a-40eb-bc06-d28d1c9414e0}, !- Outlet Node Name 1
  {8d28756c-c396-4c8a-930a-279e15366127}; !- Outlet Node Name 2

OS:AirLoopHVAC:ZoneMixer,
  {99b4d760-0fef-4e53-bfb8-f445fc96539b}, !- Handle
  Air Loop HVAC Zone Mixer 1,             !- Name
  {63426881-5fe4-40cf-82fb-17ebc6583cec}, !- Outlet Node Name
  {8e50f7b1-9dc2-42c1-a265-7a064a4b155b}, !- Inlet Node Name 1
  {f8a3076b-8bae-4707-aed8-83e79df17344}; !- Inlet Node Name 2

OS:Connection,
  {9269cdaf-d4bb-48bb-9918-9c98e5dfb9e6}, !- Handle
  {13eb820f-a239-48e1-9c13-aef72a9ca9aa}, !- Name
  {09aece1d-cd84-4bc0-8fa7-c732648c81f1}, !- Source Object
  3,                                      !- Outlet Port
  {89021f61-269d-4954-9e55-02dc417d3aa2}, !- Target Object
  2;                                      !- Inlet Port

OS:Connection,
  {63426881-5fe4-40cf-82fb-17ebc6583cec}, !- Handle
  {b3e4e790-9ae7-499a-a67e-56a05b5be83b}, !- Name
  {99b4d760-0fef-4e53-bfb8-f445fc96539b}, !- Source Object
  2,                                      !- Outlet Port
  {3cd619e8-24f9-40cd-9dde-21bed559254d}, !- Target Object
  2;                                      !- Inlet Port

OS:Sizing:System,
  {ae7ba7cf-de52-4062-a7e2-56d2024b2573}, !- Handle
  {33ed9bc2-2536-4c05-8e5b-24f38a515dde}, !- AirLoop Name
  Sensible,                               !- Type of Load to Size On
  Autosize,                               !- Design Outdoor Air Flow Rate {m3/s}
  0.3,                                    !- Minimum System Air Flow Ratio
  7,                                      !- Preheat Design Temperature {C}
  0.008,                                  !- Preheat Design Humidity Ratio {kg-H2O/kg-Air}
  12.8,                                   !- Precool Design Temperature {C}
  0.008,                                  !- Precool Design Humidity Ratio {kg-H2O/kg-Air}
  12.8,                                   !- Central Cooling Design Supply Air Temperature {C}
  16.7,                                   !- Central Heating Design Supply Air Temperature {C}
  NonCoincident,                          !- Sizing Option
  Yes,                                    !- 100% Outdoor Air in Cooling
  Yes,                                    !- 100% Outdoor Air in Heating
  0.0085,                                 !- Central Cooling Design Supply Air Humidity Ratio {kg-H2O/kg-Air}
  0.008,                                  !- Central Heating Design Supply Air Humidity Ratio {kg-H2O/kg-Air}
  DesignDay,                              !- Cooling Design Air Flow Method
  0,                                      !- Cooling Design Air Flow Rate {m3/s}
  DesignDay,                              !- Heating Design Air Flow Method
  0,                                      !- Heating Design Air Flow Rate {m3/s}
  ZoneSum,                                !- System Outdoor Air Method
  1,                                      !- Zone Maximum Outdoor Air Fraction {dimensionless}
  0.0099676501,                           !- Cooling Supply Air Flow Rate Per Floor Area {m3/s-m2}
  1,                                      !- Cooling Fraction of Autosized Cooling Supply Air Flow Rate
  3.9475456e-005,                         !- Cooling Supply Air Flow Rate Per Unit Cooling Capacity {m3/s-W}
  0.0099676501,                           !- Heating Supply Air Flow Rate Per Floor Area {m3/s-m2}
  1,                                      !- Heating Fraction of Autosized Heating Supply Air Flow Rate
  1,                                      !- Heating Fraction of Autosized Cooling Supply Air Flow Rate
  3.1588213e-005,                         !- Heating Supply Air Flow Rate Per Unit Heating Capacity {m3/s-W}
  CoolingDesignCapacity,                  !- Cooling Design Capacity Method
  autosize,                               !- Cooling Design Capacity {W}
  234.7,                                  !- Cooling Design Capacity Per Floor Area {W/m2}
  1,                                      !- Fraction of Autosized Cooling Design Capacity
  HeatingDesignCapacity,                  !- Heating Design Capacity Method
  autosize,                               !- Heating Design Capacity {W}
  157,                                    !- Heating Design Capacity Per Floor Area {W/m2}
  1,                                      !- Fraction of Autosized Heating Design Capacity
  OnOff;                                  !- Central Cooling Capacity Control Method

OS:Schedule:Constant,
  {12c74134-c359-4541-8e86-dca3df47ae7a}, !- Handle
  Always On Discrete,                     !- Name
  {47a81b23-0f86-47a3-a896-5d1eb6f27851}, !- Schedule Type Limits Name
  1;                                      !- Value

OS:ScheduleTypeLimits,
  {47a81b23-0f86-47a3-a896-5d1eb6f27851}, !- Handle
  OnOff,                                  !- Name
  0,                                      !- Lower Limit Value
  1,                                      !- Upper Limit Value
  Discrete,                               !- Numeric Type
  Availability;                           !- Unit Type

OS:AvailabilityManagerAssignmentList,
  {ec617d3b-6dce-4915-883c-d375b76210b7}, !- Handle
  Air Loop HVAC 1 AvailabilityManagerAssignmentList; !- Name

! TrackingID:#[6Y9ndb]
OS:Coil:Heating:Water,
  {5ee6bc10-27b6-422a-aa75-fe6d2509fe55}, !- Handle
  Coil Heating Water 1,                   !- Name
  {12c74134-c359-4541-8e86-dca3df47ae7a}, !- Availability Schedule Name
  ,                                       !- U-Factor Times Area Value {W/K}
  ,                                       !- Maximum Water Flow Rate {m3/s}
  {3829c8a1-b4d9-462a-bf21-383639625f68}, !- Water Inlet Node Name
  {8b076d51-5473-4910-be43-bc1d566dd7cd}, !- Water Outlet Node Name
  {0c7c253d-3652-4a76-8e6b-0ce9c2c5e495}, !- Air Inlet Node Name
  {dae96eac-ddfc-408e-afda-9601a4e6f103}, !- Air Outlet Node Name
  ,                                       !- Performance Input Method
  ,                                       !- Rated Capacity {W}
  ,                                       !- Rated Inlet Water Temperature {C}
  ,                                       !- Rated Inlet Air Temperature {C}
  ,                                       !- Rated Outlet Water Temperature {C}
  ,                                       !- Rated Outlet Air Temperature {C}
  ;                                       !- Rated Ratio for Air and Water Convection

OS:Connection,
  {0c7c253d-3652-4a76-8e6b-0ce9c2c5e495}, !- Handle
  {cc7582b7-4aef-49cb-a72f-1197e3bfc705}, !- Name
  {79c10bd1-ffc0-4601-8647-b721f7c833eb}, !- Source Object
  3,                                      !- Outlet Port
  {5ee6bc10-27b6-422a-aa75-fe6d2509fe55}, !- Target Object
  7;                                      !- Inlet Port

! TrackingID:#[RN3dq4]
OS:Fan:VariableVolume,
  {74025ca0-bb0b-471f-a340-532fa8d0f04b}, !- Handle
  Fan Variable Volume 1,                  !- Name
  {12c74134-c359-4541-8e86-dca3df47ae7a}, !- Availability Schedule Name
  0.6045,                                 !- Fan Efficiency
  1017.592,                               !- Pressure Rise {Pa}
  Autosize,                               !- Maximum Flow Rate {m3/s}
  FixedFlowRate,                          !- Fan Power Minimum Flow Rate Input Method
  0,                                      !- Fan Power Minimum Flow Fraction
  0,                                      !- Fan Power Minimum Air Flow Rate {m3/s}
  0.93,                                   !- Motor Efficiency
  1,                                      !- Motor In Airstream Fraction
  0.040759894,                            !- Fan Power Coefficient 1
  0.08804497,                             !- Fan Power Coefficient 2
  -0.07292612,                            !- Fan Power Coefficient 3
  0.943739823,                            !- Fan Power Coefficient 4
  0,                                      !- Fan Power Coefficient 5
  {f083e4de-64e2-40d9-926e-42a240c7a8d4}, !- Air Inlet Node Name
  {0a9a3f40-7168-49c3-8208-a8ad2f7b6337}, !- Air Outlet Node Name
  ;                                       !- End-Use Subcategory

OS:Node,
  {4d9b053d-5c4d-4e68-952b-379dfaba4200}, !- Handle
  Node 6,                                 !- Name
  {dae96eac-ddfc-408e-afda-9601a4e6f103}, !- Inlet Port
  {f083e4de-64e2-40d9-926e-42a240c7a8d4}; !- Outlet Port

OS:Connection,
  {dae96eac-ddfc-408e-afda-9601a4e6f103}, !- Handle
  {77e2b9e3-4d44-4620-b09d-daccaa9f5d17}, !- Name
  {5ee6bc10-27b6-422a-aa75-fe6d2509fe55}, !- Source Object
  8,                                      !- Outlet Port
  {4d9b053d-5c4d-4e68-952b-379dfaba4200}, !- Target Object
  2;                                      !- Inlet Port

OS:Connection,
  {f083e4de-64e2-40d9-926e-42a240c7a8d4}, !- Handle
  {32fae270-abf5-4ea9-9601-14cc1f375e7f}, !- Name
  {4d9b053d-5c4d-4e68-952b-379dfaba4200}, !- Source Object
  3,                                      !- Outlet Port
  {74025ca0-bb0b-471f-a340-532fa8d0f04b}, !- Target Object
  16;                                     !- Inlet Port

OS:Connection,
  {0a9a3f40-7168-49c3-8208-a8ad2f7b6337}, !- Handle
  {636a4ddf-e017-4b25-91e9-4ffb80733ea3}, !- Name
  {74025ca0-bb0b-471f-a340-532fa8d0f04b}, !- Source Object
  17,                                     !- Outlet Port
  {9e3793bd-177c-4986-a8ad-1385cc7ef120}, !- Target Object
  2;                                      !- Inlet Port

! TrackingID:#[aFEz97]
OS:ThermalZone,
  {fd64361b-2097-4e2e-aeee-3fbef25c617b}, !- Handle
  Thermal Zone 1,                         !- Name
  ,                                       !- Multiplier
  ,                                       !- Ceiling Height {m}
  ,                                       !- Volume {m3}
  ,                                       !- Floor Area {m2}
  ,                                       !- Zone Inside Convection Algorithm
  ,                                       !- Zone Outside Convection Algorithm
  ,                                       !- Zone Conditioning Equipment List Name
  {f522e827-c75f-4504-9fbd-574e2a9cb9a2}, !- Zone Air Inlet Port List
  {31606356-ecf2-4ed4-9113-f65c7e62a5c9}, !- Zone Air Exhaust Port List
  {87dd4a48-c0ca-4a54-bb21-84cc7776f525}, !- Zone Air Node Name
  {7d6dea68-6660-45da-950b-e2b588886434}, !- Zone Return Air Node Name
  ,                                       !- Primary Daylighting Control Name
  ,                                       !- Fraction of Zone Controlled by Primary Daylighting Control
  ,                                       !- Secondary Daylighting Control Name
  ,                                       !- Fraction of Zone Controlled by Secondary Daylighting Control
  ,                                       !- Illuminance Map Name
  ,                                       !- Group Rendering Name
  ,                                       !- Thermostat Name
  No;                                     !- Use Ideal Air Loads

OS:Node,
  {f276eef9-8beb-4539-9585-52c8c6a5d5f7}, !- Handle
  Node 7,                                 !- Name
  {87dd4a48-c0ca-4a54-bb21-84cc7776f525}, !- Inlet Port
  ;                                       !- Outlet Port

OS:Connection,
  {87dd4a48-c0ca-4a54-bb21-84cc7776f525}, !- Handle
  {e5b76343-9c0c-462d-b37d-a6f3411a7ea3}, !- Name
  {fd64361b-2097-4e2e-aeee-3fbef25c617b}, !- Source Object
  11,                                     !- Outlet Port
  {f276eef9-8beb-4539-9585-52c8c6a5d5f7}, !- Target Object
  2;                                      !- Inlet Port

OS:PortList,
  {f522e827-c75f-4504-9fbd-574e2a9cb9a2}, !- Handle
  {3e06420c-cd2d-49c7-b2d3-b8de50e7dfe7}, !- Name
  {fd64361b-2097-4e2e-aeee-3fbef25c617b}, !- HVAC Component
  {3a15e0dc-e662-45a3-9456-c9864b16d6e2}; !- Port 1

OS:PortList,
  {31606356-ecf2-4ed4-9113-f65c7e62a5c9}, !- Handle
  {a0a22f80-f1fd-43b3-a213-66c87d5693ae}, !- Name
  {fd64361b-2097-4e2e-aeee-3fbef25c617b}; !- HVAC Component

OS:Sizing:Zone,
  {845a8d6d-46da-415d-afa3-8c1db0cafbfb}, !- Handle
  {fd64361b-2097-4e2e-aeee-3fbef25c617b}, !- Zone or ZoneList Name
  SupplyAirTemperature,                   !- Zone Cooling Design Supply Air Temperature Input Method
  14,                                     !- Zone Cooling Design Supply Air Temperature {C}
  11.11,                                  !- Zone Cooling Design Supply Air Temperature Difference {deltaC}
  SupplyAirTemperature,                   !- Zone Heating Design Supply Air Temperature Input Method
  40,                                     !- Zone Heating Design Supply Air Temperature {C}
  11.11,                                  !- Zone Heating Design Supply Air Temperature Difference {deltaC}
  0.0085,                                 !- Zone Cooling Design Supply Air Humidity Ratio {kg-H2O/kg-air}
  0.008,                                  !- Zone Heating Design Supply Air Humidity Ratio {kg-H2O/kg-air}
  ,                                       !- Zone Heating Sizing Factor
  ,                                       !- Zone Cooling Sizing Factor
  DesignDay,                              !- Cooling Design Air Flow Method
  ,                                       !- Cooling Design Air Flow Rate {m3/s}
  ,                                       !- Cooling Minimum Air Flow per Zone Floor Area {m3/s-m2}
  ,                                       !- Cooling Minimum Air Flow {m3/s}
  ,                                       !- Cooling Minimum Air Flow Fraction
  DesignDay,                              !- Heating Design Air Flow Method
  ,                                       !- Heating Design Air Flow Rate {m3/s}
  ,                                       !- Heating Maximum Air Flow per Zone Floor Area {m3/s-m2}
  ,                                       !- Heating Maximum Air Flow {m3/s}
  ,                                       !- Heating Maximum Air Flow Fraction
  ,                                       !- Design Zone Air Distribution Effectiveness in Cooling Mode
  ,                                       !- Design Zone Air Distribution Effectiveness in Heating Mode
  No,                                     !- Account for Dedicated Outdoor Air System
  NeutralSupplyAir,                       !- Dedicated Outdoor Air System Control Strategy
  autosize,                               !- Dedicated Outdoor Air Low Setpoint Temperature for Design {C}
  autosize;                               !- Dedicated Outdoor Air High Setpoint Temperature for Design {C}

OS:ZoneHVAC:EquipmentList,
  {eb62f38f-3780-4db3-ad9b-b3c7693d790e}, !- Handle
  Zone HVAC Equipment List 1,             !- Name
  {fd64361b-2097-4e2e-aeee-3fbef25c617b}, !- Thermal Zone
  {c8ffb494-1917-4014-ab5f-a4bdf62f1fd8}, !- Zone Equipment 1
  1,                                      !- Zone Equipment Cooling Sequence 1
  1,                                      !- Zone Equipment Heating or No-Load Sequence 1
  {29b0ef29-d11a-468e-854d-d6d3ff247da0}, !- Zone Equipment 2
  2,                                      !- Zone Equipment Cooling Sequence 2
  2;                                      !- Zone Equipment Heating or No-Load Sequence 2

! TrackingID:#[B6Vixf]
OS:Sizing:Zone,
  {7eeb5ad4-a36c-45c2-944d-675ee210f7be}, !- Handle
  {fd64361b-2097-4e2e-aeee-3fbef25c617b}, !- Zone or ZoneList Name
  SupplyAirTemperature,                   !- Zone Cooling Design Supply Air Temperature Input Method
  14,                                     !- Zone Cooling Design Supply Air Temperature {C}
  11.11,                                  !- Zone Cooling Design Supply Air Temperature Difference {deltaC}
  SupplyAirTemperature,                   !- Zone Heating Design Supply Air Temperature Input Method
  40,                                     !- Zone Heating Design Supply Air Temperature {C}
  11.11,                                  !- Zone Heating Design Supply Air Temperature Difference {deltaC}
  0.0085,                                 !- Zone Cooling Design Supply Air Humidity Ratio {kg-H2O/kg-air}
  0.008,                                  !- Zone Heating Design Supply Air Humidity Ratio {kg-H2O/kg-air}
  ,                                       !- Zone Heating Sizing Factor
  ,                                       !- Zone Cooling Sizing Factor
  DesignDay,                              !- Cooling Design Air Flow Method
  ,                                       !- Cooling Design Air Flow Rate {m3/s}
  ,                                       !- Cooling Minimum Air Flow per Zone Floor Area {m3/s-m2}
  ,                                       !- Cooling Minimum Air Flow {m3/s}
  ,                                       !- Cooling Minimum Air Flow Fraction
  DesignDay,                              !- Heating Design Air Flow Method
  ,                                       !- Heating Design Air Flow Rate {m3/s}
  ,                                       !- Heating Maximum Air Flow per Zone Floor Area {m3/s-m2}
  ,                                       !- Heating Maximum Air Flow {m3/s}
  ,                                       !- Heating Maximum Air Flow Fraction
  ,                                       !- Design Zone Air Distribution Effectiveness in Cooling Mode
  ,                                       !- Design Zone Air Distribution Effectiveness in Heating Mode
  No,                                     !- Account for Dedicated Outdoor Air System
  NeutralSupplyAir,                       !- Dedicated Outdoor Air System Control Strategy
  autosize,                               !- Dedicated Outdoor Air Low Setpoint Temperature for Design {C}
  autosize;                               !- Dedicated Outdoor Air High Setpoint Temperature for Design {C}

! TrackingID:#[rFaj37]
OS:AirTerminal:SingleDuct:Uncontrolled,
  {c8ffb494-1917-4014-ab5f-a4bdf62f1fd8}, !- Handle
  Air Terminal Single Duct Uncontrolled 1, !- Name
  {12c74134-c359-4541-8e86-dca3df47ae7a}, !- Availability Schedule Name
  ,                                       !- Inlet Air Node Name
  ,                                       !- Zone Supply Air Node Name
  AutoSize;                               !- Maximum Air Flow Rate {m3/s}

! TrackingID:#[rFaj37]
OS:AirTerminal:SingleDuct:Uncontrolled,
  {29b0ef29-d11a-468e-854d-d6d3ff247da0}, !- Handle
  Air Terminal Single Duct Uncontrolled 2, !- Name
  {12c74134-c359-4541-8e86-dca3df47ae7a}, !- Availability Schedule Name
  {dca82d3b-458a-40eb-bc06-d28d1c9414e0}, !- Inlet Air Node Name
  {9673b6c8-2ba9-4f46-91cb-761f76cd3b45}, !- Zone Supply Air Node Name
  AutoSize;                               !- Maximum Air Flow Rate {m3/s}

OS:Node,
  {dc056254-fece-407e-aa6c-d4df491a5919}, !- Handle
  Node 8,                                 !- Name
  {7d6dea68-6660-45da-950b-e2b588886434}, !- Inlet Port
  {8e50f7b1-9dc2-42c1-a265-7a064a4b155b}; !- Outlet Port

OS:Connection,
  {3a15e0dc-e662-45a3-9456-c9864b16d6e2}, !- Handle
  {677afe0e-c286-462b-b7cf-2db20a85c7d1}, !- Name
  {154897d0-fe3c-4c60-8018-e588f59fbb6c}, !- Source Object
  3,                                      !- Outlet Port
  {f522e827-c75f-4504-9fbd-574e2a9cb9a2}, !- Target Object
  3;                                      !- Inlet Port

OS:Connection,
  {7d6dea68-6660-45da-950b-e2b588886434}, !- Handle
  {048fd9a8-defc-472c-99b0-062d0d873dd9}, !- Name
  {fd64361b-2097-4e2e-aeee-3fbef25c617b}, !- Source Object
  12,                                     !- Outlet Port
  {dc056254-fece-407e-aa6c-d4df491a5919}, !- Target Object
  2;                                      !- Inlet Port

OS:Connection,
  {8e50f7b1-9dc2-42c1-a265-7a064a4b155b}, !- Handle
  {d9260591-dcd6-45a8-bcb1-a3ead67e0079}, !- Name
  {dc056254-fece-407e-aa6c-d4df491a5919}, !- Source Object
  3,                                      !- Outlet Port
  {99b4d760-0fef-4e53-bfb8-f445fc96539b}, !- Target Object
  3;                                      !- Inlet Port

OS:Connection,
  {dca82d3b-458a-40eb-bc06-d28d1c9414e0}, !- Handle
  {909af3ba-8347-4518-bc27-3abb7935ee33}, !- Name
  {89021f61-269d-4954-9e55-02dc417d3aa2}, !- Source Object
  3,                                      !- Outlet Port
  {29b0ef29-d11a-468e-854d-d6d3ff247da0}, !- Target Object
  3;                                      !- Inlet Port

OS:Connection,
  {9673b6c8-2ba9-4f46-91cb-761f76cd3b45}, !- Handle
  {c939fd50-ec2b-461c-ab73-1c7d5670093e}, !- Name
  {29b0ef29-d11a-468e-854d-d6d3ff247da0}, !- Source Object
  4,                                      !- Outlet Port
  {154897d0-fe3c-4c60-8018-e588f59fbb6c}, !- Target Object
  2;                                      !- Inlet Port

! TrackingID:#[gLP1O7]
OS:ThermalZone,
  {43d0b3b3-bf36-4cad-a4fe-d9ff35b64093}, !- Handle
  Thermal Zone 2,                         !- Name
  ,                                       !- Multiplier
  ,                                       !- Ceiling Height {m}
  ,                                       !- Volume {m3}
  ,                                       !- Floor Area {m2}
  ,                                       !- Zone Inside Convection Algorithm
  ,                                       !- Zone Outside Convection Algorithm
  ,                                       !- Zone Conditioning Equipment List Name
  {9c420034-a770-45fa-b477-3f261f73d992}, !- Zone Air Inlet Port List
  {a826225e-0636-471a-adfa-0e757ebbb3f7}, !- Zone Air Exhaust Port List
  {ea780977-0b75-4564-99db-aa215b7b5961}, !- Zone Air Node Name
  {1398bf56-d8e0-41fc-afaa-c42fa70af0b9}, !- Zone Return Air Node Name
  ,                                       !- Primary Daylighting Control Name
  ,                                       !- Fraction of Zone Controlled by Primary Daylighting Control
  ,                                       !- Secondary Daylighting Control Name
  ,                                       !- Fraction of Zone Controlled by Secondary Daylighting Control
  ,                                       !- Illuminance Map Name
  ,                                       !- Group Rendering Name
  ,                                       !- Thermostat Name
  No;                                     !- Use Ideal Air Loads

OS:Node,
  {011c0d35-6536-4c68-bfef-01f4654bdabf}, !- Handle
  Node 9,                                 !- Name
  {ea780977-0b75-4564-99db-aa215b7b5961}, !- Inlet Port
  ;                                       !- Outlet Port

OS:Connection,
  {ea780977-0b75-4564-99db-aa215b7b5961}, !- Handle
  {4ffa4dbd-9b9f-4d08-84ad-75a1f9f03915}, !- Name
  {43d0b3b3-bf36-4cad-a4fe-d9ff35b64093}, !- Source Object
  11,                                     !- Outlet Port
  {011c0d35-6536-4c68-bfef-01f4654bdabf}, !- Target Object
  2;                                      !- Inlet Port

OS:PortList,
  {9c420034-a770-45fa-b477-3f261f73d992}, !- Handle
  {5912ada9-3e65-46e0-b5c1-352d3a4dd817}, !- Name
  {43d0b3b3-bf36-4cad-a4fe-d9ff35b64093}, !- HVAC Component
  {dbcce2d3-c548-4983-994d-a7e60c396cc3}; !- Port 1

OS:PortList,
  {a826225e-0636-471a-adfa-0e757ebbb3f7}, !- Handle
  {e7f058d3-1816-482e-bd72-bcd8fe4a6f7e}, !- Name
  {43d0b3b3-bf36-4cad-a4fe-d9ff35b64093}; !- HVAC Component

OS:Sizing:Zone,
  {a2b601c2-9b0e-43bd-8625-6b4a4f5e042b}, !- Handle
  {43d0b3b3-bf36-4cad-a4fe-d9ff35b64093}, !- Zone or ZoneList Name
  SupplyAirTemperature,                   !- Zone Cooling Design Supply Air Temperature Input Method
  14,                                     !- Zone Cooling Design Supply Air Temperature {C}
  11.11,                                  !- Zone Cooling Design Supply Air Temperature Difference {deltaC}
  SupplyAirTemperature,                   !- Zone Heating Design Supply Air Temperature Input Method
  40,                                     !- Zone Heating Design Supply Air Temperature {C}
  11.11,                                  !- Zone Heating Design Supply Air Temperature Difference {deltaC}
  0.0085,                                 !- Zone Cooling Design Supply Air Humidity Ratio {kg-H2O/kg-air}
  0.008,                                  !- Zone Heating Design Supply Air Humidity Ratio {kg-H2O/kg-air}
  ,                                       !- Zone Heating Sizing Factor
  ,                                       !- Zone Cooling Sizing Factor
  DesignDay,                              !- Cooling Design Air Flow Method
  ,                                       !- Cooling Design Air Flow Rate {m3/s}
  ,                                       !- Cooling Minimum Air Flow per Zone Floor Area {m3/s-m2}
  ,                                       !- Cooling Minimum Air Flow {m3/s}
  ,                                       !- Cooling Minimum Air Flow Fraction
  DesignDay,                              !- Heating Design Air Flow Method
  ,                                       !- Heating Design Air Flow Rate {m3/s}
  ,                                       !- Heating Maximum Air Flow per Zone Floor Area {m3/s-m2}
  ,                                       !- Heating Maximum Air Flow {m3/s}
  ,                                       !- Heating Maximum Air Flow Fraction
  ,                                       !- Design Zone Air Distribution Effectiveness in Cooling Mode
  ,                                       !- Design Zone Air Distribution Effectiveness in Heating Mode
  No,                                     !- Account for Dedicated Outdoor Air System
  NeutralSupplyAir,                       !- Dedicated Outdoor Air System Control Strategy
  autosize,                               !- Dedicated Outdoor Air Low Setpoint Temperature for Design {C}
  autosize;                               !- Dedicated Outdoor Air High Setpoint Temperature for Design {C}

OS:ZoneHVAC:EquipmentList,
  {f6c89609-8037-4155-9245-c5c51e768ea1}, !- Handle
  Zone HVAC Equipment List 2,             !- Name
  {43d0b3b3-bf36-4cad-a4fe-d9ff35b64093}, !- Thermal Zone
  {ca245ea1-2170-425e-8dc3-65d98810bfd5}, !- Zone Equipment 1
  1,                                      !- Zone Equipment Cooling Sequence 1