
OS:Version,
  {73d8014a-b164-42ae-a64a-7e0cf9ee1afb}, !- Handle
  2.4.0;                                  !- Version Identifier

OS:AirLoopHVAC,
  {2ca34542-38ca-4f25-9f88-eebd808911c6}, !- Handle
  Air Loop HVAC 1,                        !- Name
  ,                                       !- Controller List Name
  {5ebf0884-d82c-4407-ae5c-062654cfb2f2}, !- Availability Schedule
  {197b459a-66e3-40ec-b889-0e03d33b567e}, !- Availability Manager List Name
  AutoSize,                               !- Design Supply Air Flow Rate {m3/s}
  ,                                       !- Branch List Name
  ,                                       !- Connector List Name
  {4a3e5315-15ab-4312-b1e6-3d3e22aeca4f}, !- Supply Side Inlet Node Name
  {7d6daaa4-d336-4af5-a92e-4c5f5480b9d2}, !- Demand Side Outlet Node Name
  {43e64d83-2df4-4e9b-8f22-3c9bb1105539}, !- Demand Side Inlet Node A
  {319d9007-56fc-4948-8994-232090835573}, !- Supply Side Outlet Node A
  ,                                       !- Demand Side Inlet Node B
  ,                                       !- Supply Side Outlet Node B
  ,                                       !- Return Air Bypass Flow Temperature Setpoint Schedule Name
  {161713b7-14e1-40f9-bdba-5fc588267902}, !- Demand Mixer Name
  {79ff6405-2584-4473-91de-34a26bfdce5e}, !- Demand Splitter A Name
  ,                                       !- Demand Splitter B Name
  ;                                       !- Supply Splitter Name

OS:Node,
  {0a7250c8-d09c-4e02-88ca-8ecfcac6798e}, !- Handle
  Node 1,                                 !- Name
  {4a3e5315-15ab-4312-b1e6-3d3e22aeca4f}, !- Inlet Port
  {4d170451-d974-418a-a25d-49d7b07f222d}; !- Outlet Port

OS:Node,
  {fb452e05-4ad3-4757-af5d-12875f3241aa}, !- Handle
  Node 2,                                 !- Name
  {f855b38a-6c1b-47b2-91f9-7b53b377ea77}, !- Inlet Port
  {319d9007-56fc-4948-8994-232090835573}; !- Outlet Port

OS:Connection,
  {4a3e5315-15ab-4312-b1e6-3d3e22aeca4f}, !- Handle
  {68c130ed-f3bd-43ad-aa7a-93ac55b4105b}, !- Name
  {2ca34542-38ca-4f25-9f88-eebd808911c6}, !- Source Object
  8,                                      !- Outlet Port
  {0a7250c8-d09c-4e02-88ca-8ecfcac6798e}, !- Target Object
  2;                                      !- Inlet Port

OS:Connection,
  {319d9007-56fc-4948-8994-232090835573}, !- Handle
  {d6ed3f1a-3d85-491c-96d9-3f955c26fc76}, !- Name
  {fb452e05-4ad3-4757-af5d-12875f3241aa}, !- Source Object
  3,                                      !- Outlet Port
  {2ca34542-38ca-4f25-9f88-eebd808911c6}, !- Target Object
  11;                                     !- Inlet Port

OS:Node,
  {06796e90-9d75-4ac1-bd54-c9b6c0019ac5}, !- Handle
  Node 3,                                 !- Name
  {43e64d83-2df4-4e9b-8f22-3c9bb1105539}, !- Inlet Port
  {6e1f05f2-9800-43fb-91c1-4d9c6c096584}; !- Outlet Port

OS:Node,
  {e33cd41c-f6f1-47d5-a834-c296404131eb}, !- Handle
  Node 4,                                 !- Name
  {d966e608-7e6e-4ac5-bf26-3d6c32b0364c}, !- Inlet Port
  {7d6daaa4-d336-4af5-a92e-4c5f5480b9d2}; !- Outlet Port

OS:Node,
  {58a7ddce-13a5-4f45-bf12-f7950bc3d5bf}, !- Handle
  Node 5,                                 !- Name
  {d6fb4879-d719-4055-ba61-2a073f9c0189}, !- Inlet Port
  {10209fb2-d59b-4358-8c10-ed2019af1a3b}; !- Outlet Port

OS:Connection,
  {43e64d83-2df4-4e9b-8f22-3c9bb1105539}, !- Handle
  {f4d13634-bff4-4051-b509-6394df7fbde0}, !- Name
  {2ca34542-38ca-4f25-9f88-eebd808911c6}, !- Source Object
  10,                                     !- Outlet Port
  {06796e90-9d75-4ac1-bd54-c9b6c0019ac5}, !- Target Object
  2;                                      !- Inlet Port

OS:Connection,
  {7d6daaa4-d336-4af5-a92e-4c5f5480b9d2}, !- Handle
  {2d316fd0-8a4e-4910-958b-416d568bd341}, !- Name
  {e33cd41c-f6f1-47d5-a834-c296404131eb}, !- Source Object
  3,                                      !- Outlet Port
  {2ca34542-38ca-4f25-9f88-eebd808911c6}, !- Target Object
  9;                                      !- Inlet Port

OS:AirLoopHVAC:ZoneSplitter,
  {79ff6405-2584-4473-91de-34a26bfdce5e}, !- Handle
  Air Loop HVAC Zone Splitter 1,          !- Name
  {6e1f05f2-9800-43fb-91c1-4d9c6c096584}, !- Inlet Node Name
  {d6fb4879-d719-4055-ba61-2a073f9c0189}; !- Outlet Node Name 1

OS:AirLoopHVAC:ZoneMixer,
  {161713b7-14e1-40f9-bdba-5fc588267902}, !- Handle
  Air Loop HVAC Zone Mixer 1,             !- Name
  {d966e608-7e6e-4ac5-bf26-3d6c32b0364c}, !- Outlet Node Name
  {10209fb2-d59b-4358-8c10-ed2019af1a3b}; !- Inlet Node Name 1

OS:Connection,
  {6e1f05f2-9800-43fb-91c1-4d9c6c096584}, !- Handle
  {1a1a10dd-1f67-4ad1-96f2-17f37921a56b}, !- Name
  {06796e90-9d75-4ac1-bd54-c9b6c0019ac5}, !- Source Object
  3,                                      !- Outlet Port
  {79ff6405-2584-4473-91de-34a26bfdce5e}, !- Target Object
  2;                                      !- Inlet Port

OS:Connection,
  {d6fb4879-d719-4055-ba61-2a073f9c0189}, !- Handle
  {52d4bbfd-cf76-468c-a811-4fa23ccd7dc2}, !- Name
  {79ff6405-2584-4473-91de-34a26bfdce5e}, !- Source Object
  3,                                      !- Outlet Port
  {58a7ddce-13a5-4f45-bf12-f7950bc3d5bf}, !- Target Object
  2;                                      !- Inlet Port

OS:Connection,
  {10209fb2-d59b-4358-8c10-ed2019af1a3b}, !- Handle
  {b25fc6e8-e250-462e-a77e-353bd0d46c7b}, !- Name
  {58a7ddce-13a5-4f45-bf12-f7950bc3d5bf}, !- Source Object
  3,                                      !- Outlet Port
  {161713b7-14e1-40f9-bdba-5fc588267902}, !- Target Object
  3;                                      !- Inlet Port

OS:Connection,
  {d966e608-7e6e-4ac5-bf26-3d6c32b0364c}, !- Handle
  {01295cd7-2593-421f-b2dd-c5c2e78fa464}, !- Name
  {161713b7-14e1-40f9-bdba-5fc588267902}, !- Source Object
  2,                                      !- Outlet Port
  {e33cd41c-f6f1-47d5-a834-c296404131eb}, !- Target Object
  2;                                      !- Inlet Port

OS:Sizing:System,
  {be0ae505-5ede-41c9-9152-0a058b736935}, !- Handle
  {2ca34542-38ca-4f25-9f88-eebd808911c6}, !- AirLoop Name
  Sensible,                               !- Type of Load to Size On
  Autosize,                               !- Design Outdoor Air Flow Rate {m3/s}
  0.3,                                    !- Minimum System Air Flow Ratio
  7,                                      !- Preheat Design Temperature {C}
  0.008,                                  !- Preheat Design Humidity Ratio {kg-H2O/kg-Air}
  12.8,                                   !- Precool Design Temperature {C}
  0.008,                                  !- Precool Design Humidity Ratio {kg-H2O/kg-Air}
  12.8,                                   !- Central Cooling Design Supply Air Temperature {C}
  16.7,                                   !- Central Heating Design Supply Air Temperature {C}
  NonCoincident,                          !- Sizing Option
  Yes,                                    !- 100% Outdoor Air in Cooling
  Yes,                                    !- 100% Outdoor Air in Heating
  0.0085,                                 !- Central Cooling Design Supply Air Humidity Ratio {kg-H2O/kg-Air}
  0.008,                                  !- Central Heating Design Supply Air Humidity Ratio {kg-H2O/kg-Air}
  DesignDay,                              !- Cooling Design Air Flow Method
  0,                                      !- Cooling Design Air Flow Rate {m3/s}
  DesignDay,                              !- Heating Design Air Flow Method
  0,                                      !- Heating Design Air Flow Rate {m3/s}
  ZoneSum,                                !- System Outdoor Air Method
  1,                                      !- Zone Maximum Outdoor Air Fraction {dimensionless}
  0.0099676501,                           !- Cooling Supply Air Flow Rate Per Floor Area {m3/s-m2}
  1,                                      !- Cooling Fraction of Autosized Cooling Supply Air Flow Rate
  3.9475456e-005,                         !- Cooling Supply Air Flow Rate Per Unit Cooling Capacity {m3/s-W}
  0.0099676501,                           !- Heating Supply Air Flow Rate Per Floor Area {m3/s-m2}
  1,                                      !- Heating Fraction of Autosized Heating Supply Air Flow Rate
  1,                                      !- Heating Fraction of Autosized Cooling Supply Air Flow Rate
  3.1588213e-005,                         !- Heating Supply Air Flow Rate Per Unit Heating Capacity {m3/s-W}
  CoolingDesignCapacity,                  !- Cooling Design Capacity Method
  autosize,                               !- Cooling Design Capacity {W}
  234.7,                                  !- Cooling Design Capacity Per Floor Area {W/m2}
  1,                                      !- Fraction of Autosized Cooling Design Capacity
  HeatingDesignCapacity,                  !- Heating Design Capacity Method
  autosize,                               !- Heating Design Capacity {W}
  157,                                    !- Heating Design Capacity Per Floor Area {W/m2}
  1,                                      !- Fraction of Autosized Heating Design Capacity
  OnOff;                                  !- Central Cooling Capacity Control Method

OS:Schedule:Constant,
  {5ebf0884-d82c-4407-ae5c-062654cfb2f2}, !- Handle
  Always On Discrete,                     !- Name
  {d4631bbf-1a39-4de0-8c12-90b471f16028}, !- Schedule Type Limits Name
  1;                                      !- Value

OS:ScheduleTypeLimits,
  {d4631bbf-1a39-4de0-8c12-90b471f16028}, !- Handle
  OnOff,                                  !- Name
  0,                                      !- Lower Limit Value
  1,                                      !- Upper Limit Value
  Discrete,                               !- Numeric Type
  Availability;                           !- Unit Type

OS:AvailabilityManagerAssignmentList,
  {197b459a-66e3-40ec-b889-0e03d33b567e}, !- Handle
  Air Loop HVAC 1 AvailabilityManagerAssignmentList; !- Name

! TrackingID:#[lDagp1]
OS:Coil:Heating:Water,
  {c8ce8a2e-cf7e-46d2-a433-b2e9d043a09f}, !- Handle
  Coil Heating Water 1,                   !- Name
  {5ebf0884-d82c-4407-ae5c-062654cfb2f2}, !- Availability Schedule Name
  ,                                       !- U-Factor Times Area Value {W/K}
  ,                                       !- Maximum Water Flow Rate {m3/s}
  {0e4bd567-4151-4361-aae3-6c62fb1a36a1}, !- Water Inlet Node Name
  {9ba13d78-f455-4b53-a0b7-40bc28c6f2a9}, !- Water Outlet Node Name
  {4d170451-d974-418a-a25d-49d7b07f222d}, !- Air Inlet Node Name
  {f855b38a-6c1b-47b2-91f9-7b53b377ea77}, !- Air Outlet Node Name
  ,                                       !- Performance Input Method
  ,                                       !- Rated Capacity {W}
  ,                                       !- Rated Inlet Water Temperature {C}
  ,                                       !- Rated Inlet Air Temperature {C}
  74,                                     !- Rated Outlet Water Temperature {C}
  ,                                       !- Rated Outlet Air Temperature {C}
  ;                                       !- Rated Ratio for Air and Water Convection

OS:Connection,
  {4d170451-d974-418a-a25d-49d7b07f222d}, !- Handle
  {598d65db-e008-4aaa-b6e4-577f40cc3d59}, !- Name
  {0a7250c8-d09c-4e02-88ca-8ecfcac6798e}, !- Source Object
  3,                                      !- Outlet Port
  {c8ce8a2e-cf7e-46d2-a433-b2e9d043a09f}, !- Target Object
  7;                                      !- Inlet Port

OS:Connection,
  {f855b38a-6c1b-47b2-91f9-7b53b377ea77}, !- Handle
  {5f7da62b-13a4-4408-b98a-cc0e45787097}, !- Name
  {c8ce8a2e-cf7e-46d2-a433-b2e9d043a09f}, !- Source Object
  8,                                      !- Outlet Port
  {fb452e05-4ad3-4757-af5d-12875f3241aa}, !- Target Object
  2;                                      !- Inlet Port

! TrackingID:#[974jpw]
OS:PlantLoop,
  {e9875953-a211-4683-b921-efeae75afe02}, !- Handle
  Plant Loop 1,                           !- Name
  ,                                       !- Fluid Type
  0,                                      !- Glycol Concentration
  ,                                       !- User Defined Fluid Type
  ,                                       !- Plant Equipment Operation Heating Load
  ,                                       !- Plant Equipment Operation Cooling Load
  ,                                       !- Primary Plant Equipment Operation Scheme
  {6d97f68e-28f9-4962-90bd-0b6dd041fcf1}, !- Loop Temperature Setpoint Node Name
  ,                                       !- Maximum Loop Temperature {C}
  ,                                       !- Minimum Loop Temperature {C}
  ,                                       !- Maximum Loop Flow Rate {m3/s}
  ,                                       !- Minimum Loop Flow Rate {m3/s}
  Autocalculate,                          !- Plant Loop Volume {m3}
  {516d71ae-0532-4fc5-ba95-a9a043fa2231}, !- Plant Side Inlet Node Name
  {a9ce6879-4bb5-426e-b727-f263916f3d87}, !- Plant Side Outlet Node Name
  ,                                       !- Plant Side Branch List Name
  {a83a67eb-1e82-42cd-87ad-e6f203f738fa}, !- Demand Side Inlet Node Name
  {e54bcf81-045f-45ce-b798-e80b840f0c13}, !- Demand Side Outlet Node Name
  ,                                       !- Demand Side Branch List Name
  ,                                       !- Demand Side Connector List Name
  Optimal,                                !- Load Distribution Scheme
  {814f438a-799c-4cf6-b9f1-650718d3fe38}, !- Availability Manager List Name
  ,                                       !- Plant Loop Demand Calculation Scheme
  ,                                       !- Common Pipe Simulation
  ,                                       !- Pressure Simulation Type
  ,                                       !- Plant Equipment Operation Heating Load Schedule
  ,                                       !- Plant Equipment Operation Cooling Load Schedule
  ,                                       !- Primary Plant Equipment Operation Scheme Schedule
  ,                                       !- Component Setpoint Operation Scheme Schedule
  {2dff39f6-f9d8-4189-8448-386c3486fa8c}, !- Demand Mixer Name
  {724e5b56-4f61-4fae-a122-27710ef82afc}, !- Demand Splitter Name
  {837c77b0-0b4f-4041-92f7-22302f8addd4}, !- Supply Mixer Name
  {333f881b-030b-4860-ac7f-f0b47b451f84}; !- Supply Splitter Name

OS:Sizing:Plant,
  {2da2010b-037a-4890-9e6d-fbcd9704c1a4}, !- Handle
  {e9875953-a211-4683-b921-efeae75afe02}, !- Plant or Condenser Loop Name
  Heating,                                !- Loop Type
  82,                                     !- Design Loop Exit Temperature {C}
  11,                                     !- Loop Design Temperature Difference {deltaC}
  NonCoincident,                          !- Sizing Option
  1,                                      !- Zone Timesteps in Averaging Window
  None;                                   !- Coincident Sizing Factor Mode

OS:Node,
  {31e614b8-e8f4-4770-9454-4134d66aceda}, !- Handle
  Node 6,                                 !- Name
  {516d71ae-0532-4fc5-ba95-a9a043fa2231}, !- Inlet Port
  {7ad3e4c9-8e47-458f-9419-9d10729d8f32}; !- Outlet Port

OS:Node,
  {6d97f68e-28f9-4962-90bd-0b6dd041fcf1}, !- Handle
  Node 7,                                 !- Name
  {bbf54032-0231-46ee-9b06-e2d2bff1e364}, !- Inlet Port
  {a9ce6879-4bb5-426e-b727-f263916f3d87}; !- Outlet Port

OS:Node,
  {36ed2dfc-93ef-4d69-89bc-c83912651be2}, !- Handle
  Node 8,                                 !- Name
  {28fac965-c1b9-4bd0-91e5-2477519edae3}, !- Inlet Port
  {97bd8c79-18ac-4d8b-b59c-c8fc5bdfbe92}; !- Outlet Port

OS:Connector:Mixer,
  {837c77b0-0b4f-4041-92f7-22302f8addd4}, !- Handle
  Connector Mixer 1,                      !- Name
  {bbf54032-0231-46ee-9b06-e2d2bff1e364}, !- Outlet Branch Name
  {97bd8c79-18ac-4d8b-b59c-c8fc5bdfbe92}; !- Inlet Branch Name 1

OS:Connector:Splitter,
  {333f881b-030b-4860-ac7f-f0b47b451f84}, !- Handle
  Connector Splitter 1,                   !- Name
  {7ad3e4c9-8e47-458f-9419-9d10729d8f32}, !- Inlet Branch Name
  {28fac965-c1b9-4bd0-91e5-2477519edae3}; !- Outlet Branch Name 1

OS:Connection,
  {516d71ae-0532-4fc5-ba95-a9a043fa2231}, !- Handle
  {4dc13235-5765-4ed7-98c1-dbabe5fe42e0}, !- Name
  {e9875953-a211-4683-b921-efeae75afe02}, !- Source Object
  14,                                     !- Outlet Port
  {31e614b8-e8f4-4770-9454-4134d66aceda}, !- Target Object
  2;                                      !- Inlet Port

OS:Connection,
  {7ad3e4c9-8e47-458f-9419-9d10729d8f32}, !- Handle
  {957e8d4d-2930-4551-b893-b00405f64f8a}, !- Name
  {31e614b8-e8f4-4770-9454-4134d66aceda}, !- Source Object
  3,                                      !- Outlet Port
  {333f881b-030b-4860-ac7f-f0b47b451f84}, !- Target Object
  2;                                      !- Inlet Port

OS:Connection,
  {28fac965-c1b9-4bd0-91e5-2477519edae3}, !- Handle
  {e9c339f5-baba-4e1a-a917-e89f7b80c435}, !- Name
  {333f881b-030b-4860-ac7f-f0b47b451f84}, !- Source Object
  3,                                      !- Outlet Port
  {36ed2dfc-93ef-4d69-89bc-c83912651be2}, !- Target Object
  2;                                      !- Inlet Port

OS:Connection,
  {97bd8c79-18ac-4d8b-b59c-c8fc5bdfbe92}, !- Handle
  {5f445971-164b-4d3d-b042-3ebdbc79e177}, !- Name
  {36ed2dfc-93ef-4d69-89bc-c83912651be2}, !- Source Object
  3,                                      !- Outlet Port
  {837c77b0-0b4f-4041-92f7-22302f8addd4}, !- Target Object
  3;                                      !- Inlet Port

OS:Connection,
  {bbf54032-0231-46ee-9b06-e2d2bff1e364}, !- Handle
  {448d7db3-8453-4958-937a-40c1889527be}, !- Name
  {837c77b0-0b4f-4041-92f7-22302f8addd4}, !- Source Object
  2,                                      !- Outlet Port
  {6d97f68e-28f9-4962-90bd-0b6dd041fcf1}, !- Target Object
  2;                                      !- Inlet Port

OS:Connection,
  {a9ce6879-4bb5-426e-b727-f263916f3d87}, !- Handle
  {50992591-f34f-45c3-9abf-39db706eedd3}, !- Name
  {6d97f68e-28f9-4962-90bd-0b6dd041fcf1}, !- Source Object
  3,                                      !- Outlet Port
  {e9875953-a211-4683-b921-efeae75afe02}, !- Target Object
  15;                                     !- Inlet Port

OS:Node,
  {1eb74956-a1f1-4eda-9c63-ca2fb0510de0}, !- Handle
  Node 9,                                 !- Name
  {a83a67eb-1e82-42cd-87ad-e6f203f738fa}, !- Inlet Port
  {7e5dc858-fcdf-4e17-a9c7-5fdc44828163}; !- Outlet Port

OS:Node,
  {854307e6-f8f1-41ea-abd9-185991f2fcec}, !- Handle
  Node 10,                                !- Name
  {7af72cc1-8470-440c-bd4f-57a272987c33}, !- Inlet Port
  {e54bcf81-045f-45ce-b798-e80b840f0c13}; !- Outlet Port

OS:Node,
  {12f349a8-b407-41ba-bca0-0b18efcaf7cc}, !- Handle
  Node 11,                                !- Name
  {ed2cb2db-00cd-4198-af0a-7a70162502e7}, !- Inlet Port
  {0e4bd567-4151-4361-aae3-6c62fb1a36a1}; !- Outlet Port

OS:Connector:Mixer,
  {2dff39f6-f9d8-4189-8448-386c3486fa8c}, !- Handle
  Connector Mixer 2,                      !- Name
  {7af72cc1-8470-440c-bd4f-57a272987c33}, !- Outlet Branch Name
  {2c002fb8-fd15-4ce8-9dba-f92fc1fa12b2}; !- Inlet Branch Name 1

OS:Connector:Splitter,
  {724e5b56-4f61-4fae-a122-27710ef82afc}, !- Handle
  Connector Splitter 2,                   !- Name
  {7e5dc858-fcdf-4e17-a9c7-5fdc44828163}, !- Inlet Branch Name
  {ed2cb2db-00cd-4198-af0a-7a70162502e7}; !- Outlet Branch Name 1

OS:Connection,
  {a83a67eb-1e82-42cd-87ad-e6f203f738fa}, !- Handle
  {adc7b724-72a2-4762-baf4-3c013d40474a}, !- Name
  {e9875953-a211-4683-b921-efeae75afe02}, !- Source Object
  17,                                     !- Outlet Port
  {1eb74956-a1f1-4eda-9c63-ca2fb0510de0}, !- Target Object
  2;                                      !- Inlet Port

OS:Connection,
  {7e5dc858-fcdf-4e17-a9c7-5fdc44828163}, !- Handle
  {c442ed07-5a64-4eb3-b008-46d5f79edc44}, !- Name
  {1eb74956-a1f1-4eda-9c63-ca2fb0510de0}, !- Source Object
  3,                                      !- Outlet Port
  {724e5b56-4f61-4fae-a122-27710ef82afc}, !- Target Object
  2;                                      !- Inlet Port

OS:Connection,
  {ed2cb2db-00cd-4198-af0a-7a70162502e7}, !- Handle
  {e06790f1-f06e-44d9-b883-f47e790ab31c}, !- Name
  {724e5b56-4f61-4fae-a122-27710ef82afc}, !- Source Object
  3,                                      !- Outlet Port
  {12f349a8-b407-41ba-bca0-0b18efcaf7cc}, !- Target Object
  2;                                      !- Inlet Port

OS:Connection,
  {7af72cc1-8470-440c-bd4f-57a272987c33}, !- Handle
  {667b6af6-bb11-4b9b-8105-4975067c051b}, !- Name
  {2dff39f6-f9d8-4189-8448-386c3486fa8c}, !- Source Object
  2,                                      !- Outlet Port
  {854307e6-f8f1-41ea-abd9-185991f2fcec}, !- Target Object
  2;                                      !- Inlet Port

OS:Connection,
  {e54bcf81-045f-45ce-b798-e80b840f0c13}, !- Handle
  {97c273f6-9341-4256-8034-82dc424fc882}, !- Name
  {854307e6-f8f1-41ea-abd9-185991f2fcec}, !- Source Object
  3,                                      !- Outlet Port
  {e9875953-a211-4683-b921-efeae75afe02}, !- Target Object
  18;                                     !- Inlet Port

OS:AvailabilityManagerAssignmentList,
  {814f438a-799c-4cf6-b9f1-650718d3fe38}, !- Handle
  Plant Loop 1 AvailabilityManagerAssignmentList; !- Name

OS:Node,
  {84a52403-12d2-44d5-8335-b875ddb58445}, !- Handle
  Node 12,                                !- Name
  {9ba13d78-f455-4b53-a0b7-40bc28c6f2a9}, !- Inlet Port
  {2c002fb8-fd15-4ce8-9dba-f92fc1fa12b2}; !- Outlet Port

OS:Connection,
  {0e4bd567-4151-4361-aae3-6c62fb1a36a1}, !- Handle
  {a81fe0e8-359a-46d6-958d-d97998d8e396}, !- Name
  {12f349a8-b407-41ba-bca0-0b18efcaf7cc}, !- Source Object
  3,                                      !- Outlet Port
  {c8ce8a2e-cf7e-46d2-a433-b2e9d043a09f}, !- Target Object
  5;                                      !- Inlet Port

OS:Connection,
  {9ba13d78-f455-4b53-a0b7-40bc28c6f2a9}, !- Handle
  {894aa665-6009-4e69-b4e7-b24b0989d1f2}, !- Name
  {c8ce8a2e-cf7e-46d2-a433-b2e9d043a09f}, !- Source Object
  6,                                      !- Outlet Port
  {84a52403-12d2-44d5-8335-b875ddb58445}, !- Target Object
  2;                                      !- Inlet Port

OS:Connection,
  {2c002fb8-fd15-4ce8-9dba-f92fc1fa12b2}, !- Handle
  {3e4ad113-518a-4e16-aa38-18d5c8d529de}, !- Name
  {84a52403-12d2-44d5-8335-b875ddb58445}, !- Source Object
  3,                                      !- Outlet Port
  {2dff39f6-f9d8-4189-8448-386c3486fa8c}, !- Target Object
  3;                                      !- Inlet Port

OS:Controller:WaterCoil,
  {79e23e1b-04e0-415a-b164-80429ad26a3c}, !- Handle
  Controller Water Coil 1,                !- Name
  {c8ce8a2e-cf7e-46d2-a433-b2e9d043a09f}, !- Water Coil Name
  ,                                       !- Control Variable
  Normal,                                 !- Action
  ,                                       !- Actuator Variable
  ,                                       !- Sensor Node Name
  ,                                       !- Actuator Node Name
  ,                                       !- Controller Convergence Tolerance {deltaC}
  ,                                       !- Maximum Actuated Flow {m3/s}
  0;                                      !- Minimum Actuated Flow {m3/s}

