
OS:Version,
  {b6bbf055-2bb2-463b-bcdd-a956acb59cd2}, !- Handle
  2.4.0;                                  !- Version Identifier

OS:AirLoopHVAC,
  {1f3de133-525a-4ec3-9670-dd133d6f55f8}, !- Handle
  Air Loop HVAC 1,                        !- Name
  ,                                       !- Controller List Name
  {b4790dbf-736b-4444-879e-18ee94d44a90}, !- Availability Schedule
  {c313110f-7253-4e9e-bb31-4691414d05c9}, !- Availability Manager List Name
  AutoSize,                               !- Design Supply Air Flow Rate {m3/s}
  ,                                       !- Branch List Name
  ,                                       !- Connector List Name
  {c062a13d-4634-4147-9ec2-119ddcc7df55}, !- Supply Side Inlet Node Name
  {5584add1-1098-4c5a-a658-3ec35062efa1}, !- Demand Side Outlet Node Name
  {2ff687fc-7e4c-4dd1-83ce-aa6a55c16aea}, !- Demand Side Inlet Node A
  {1ea6be8e-70fe-437e-9131-4eab72d3b10b}, !- Supply Side Outlet Node A
  ,                                       !- Demand Side Inlet Node B
  ,                                       !- Supply Side Outlet Node B
  ,                                       !- Return Air Bypass Flow Temperature Setpoint Schedule Name
  {fbaa3eca-71ee-43af-a605-96e2cac607db}, !- Demand Mixer Name
  {c86f879a-d329-4229-a99f-2dcf7b6b65c1}, !- Demand Splitter A Name
  ,                                       !- Demand Splitter B Name
  ;                                       !- Supply Splitter Name

OS:Node,
  {eb63f226-828a-4913-bb27-5967cea85b9a}, !- Handle
  Node 1,                                 !- Name
  {c062a13d-4634-4147-9ec2-119ddcc7df55}, !- Inlet Port
  {0e8cd4dd-1705-437e-b5b9-7bfdc51df7cb}; !- Outlet Port

OS:Node,
  {861617b8-4a10-4039-b9fa-ca15354fa26f}, !- Handle
  Node 2,                                 !- Name
  {1b8ea1d8-89c3-4611-911c-c95f4492adcb}, !- Inlet Port
  {1ea6be8e-70fe-437e-9131-4eab72d3b10b}; !- Outlet Port

OS:Connection,
  {c062a13d-4634-4147-9ec2-119ddcc7df55}, !- Handle
  {66c2e515-4b3c-4408-bf8d-5237a8a09618}, !- Name
  {1f3de133-525a-4ec3-9670-dd133d6f55f8}, !- Source Object
  8,                                      !- Outlet Port
  {eb63f226-828a-4913-bb27-5967cea85b9a}, !- Target Object
  2;                                      !- Inlet Port

OS:Connection,
  {1ea6be8e-70fe-437e-9131-4eab72d3b10b}, !- Handle
  {f12e8b90-34c0-4b57-ac6a-29ffd181ee13}, !- Name
  {861617b8-4a10-4039-b9fa-ca15354fa26f}, !- Source Object
  3,                                      !- Outlet Port
  {1f3de133-525a-4ec3-9670-dd133d6f55f8}, !- Target Object
  11;                                     !- Inlet Port

OS:Node,
  {ccc9e6d5-aba7-4246-8344-b9c1a7576f29}, !- Handle
  Node 3,                                 !- Name
  {2ff687fc-7e4c-4dd1-83ce-aa6a55c16aea}, !- Inlet Port
  {3ae6959f-6b82-45d1-a4cb-bc9c9620a05a}; !- Outlet Port

OS:Node,
  {e913a3b3-419d-47d0-a32f-d2e47cceed84}, !- Handle
  Node 4,                                 !- Name
  {7e92edd6-83b7-4274-bb06-c017d4888b34}, !- Inlet Port
  {5584add1-1098-4c5a-a658-3ec35062efa1}; !- Outlet Port

OS:Node,
  {88106cfe-d073-4594-91ff-f43a317d87df}, !- Handle
  Node 5,                                 !- Name
  {bae7d5a6-a1d7-45e1-884a-82b81dddc8b2}, !- Inlet Port
  {90c4b4ea-59c7-4f2b-9692-36b327565e5b}; !- Outlet Port

OS:Connection,
  {2ff687fc-7e4c-4dd1-83ce-aa6a55c16aea}, !- Handle
  {af10357c-6ecc-4c68-9ae5-c2cf022d0204}, !- Name
  {1f3de133-525a-4ec3-9670-dd133d6f55f8}, !- Source Object
  10,                                     !- Outlet Port
  {ccc9e6d5-aba7-4246-8344-b9c1a7576f29}, !- Target Object
  2;                                      !- Inlet Port

OS:Connection,
  {5584add1-1098-4c5a-a658-3ec35062efa1}, !- Handle
  {b7cf40bd-c38b-4ce4-ab97-939d3bcc995d}, !- Name
  {e913a3b3-419d-47d0-a32f-d2e47cceed84}, !- Source Object
  3,                                      !- Outlet Port
  {1f3de133-525a-4ec3-9670-dd133d6f55f8}, !- Target Object
  9;                                      !- Inlet Port

OS:AirLoopHVAC:ZoneSplitter,
  {c86f879a-d329-4229-a99f-2dcf7b6b65c1}, !- Handle
  Air Loop HVAC Zone Splitter 1,          !- Name
  {3ae6959f-6b82-45d1-a4cb-bc9c9620a05a}, !- Inlet Node Name
  {52843b4c-7964-43dd-b34f-bb2a32966ccb}; !- Outlet Node Name 1

OS:AirLoopHVAC:ZoneMixer,
  {fbaa3eca-71ee-43af-a605-96e2cac607db}, !- Handle
  Air Loop HVAC Zone Mixer 1,             !- Name
  {7e92edd6-83b7-4274-bb06-c017d4888b34}, !- Outlet Node Name
  {f7e093b9-c57b-4bad-8081-b278309ec741}; !- Inlet Node Name 1

OS:Connection,
  {3ae6959f-6b82-45d1-a4cb-bc9c9620a05a}, !- Handle
  {2157d14a-5551-4a29-8e32-dc60f809271d}, !- Name
  {ccc9e6d5-aba7-4246-8344-b9c1a7576f29}, !- Source Object
  3,                                      !- Outlet Port
  {c86f879a-d329-4229-a99f-2dcf7b6b65c1}, !- Target Object
  2;                                      !- Inlet Port

OS:Connection,
  {7e92edd6-83b7-4274-bb06-c017d4888b34}, !- Handle
  {2141ab48-b649-432b-9fc6-e41a5eb6c62f}, !- Name
  {fbaa3eca-71ee-43af-a605-96e2cac607db}, !- Source Object
  2,                                      !- Outlet Port
  {e913a3b3-419d-47d0-a32f-d2e47cceed84}, !- Target Object
  2;                                      !- Inlet Port

OS:Sizing:System,
  {e21c074d-8835-4839-9f51-329798206ca0}, !- Handle
  {1f3de133-525a-4ec3-9670-dd133d6f55f8}, !- AirLoop Name
  Sensible,                               !- Type of Load to Size On
  Autosize,                               !- Design Outdoor Air Flow Rate {m3/s}
  0.3,                                    !- Minimum System Air Flow Ratio
  7,                                      !- Preheat Design Temperature {C}
  0.008,                                  !- Preheat Design Humidity Ratio {kg-H2O/kg-Air}
  12.8,                                   !- Precool Design Temperature {C}
  0.008,                                  !- Precool Design Humidity Ratio {kg-H2O/kg-Air}
  12.8,                                   !- Central Cooling Design Supply Air Temperature {C}
  16.7,                                   !- Central Heating Design Supply Air Temperature {C}
  NonCoincident,                          !- Sizing Option
  Yes,                                    !- 100% Outdoor Air in Cooling
  Yes,                                    !- 100% Outdoor Air in Heating
  0.0085,                                 !- Central Cooling Design Supply Air Humidity Ratio {kg-H2O/kg-Air}
  0.008,                                  !- Central Heating Design Supply Air Humidity Ratio {kg-H2O/kg-Air}
  DesignDay,                              !- Cooling Design Air Flow Method
  0,                                      !- Cooling Design Air Flow Rate {m3/s}
  DesignDay,                              !- Heating Design Air Flow Method
  0,                                      !- Heating Design Air Flow Rate {m3/s}
  ZoneSum,                                !- System Outdoor Air Method
  1,                                      !- Zone Maximum Outdoor Air Fraction {dimensionless}
  0.0099676501,                           !- Cooling Supply Air Flow Rate Per Floor Area {m3/s-m2}
  1,                                      !- Cooling Fraction of Autosized Cooling Supply Air Flow Rate
  3.9475456e-005,                         !- Cooling Supply Air Flow Rate Per Unit Cooling Capacity {m3/s-W}
  0.0099676501,                           !- Heating Supply Air Flow Rate Per Floor Area {m3/s-m2}
  1,                                      !- Heating Fraction of Autosized Heating Supply Air Flow Rate
  1,                                      !- Heating Fraction of Autosized Cooling Supply Air Flow Rate
  3.1588213e-005,                         !- Heating Supply Air Flow Rate Per Unit Heating Capacity {m3/s-W}
  CoolingDesignCapacity,                  !- Cooling Design Capacity Method
  autosize,                               !- Cooling Design Capacity {W}
  234.7,                                  !- Cooling Design Capacity Per Floor Area {W/m2}
  1,                                      !- Fraction of Autosized Cooling Design Capacity
  HeatingDesignCapacity,                  !- Heating Design Capacity Method
  autosize,                               !- Heating Design Capacity {W}
  157,                                    !- Heating Design Capacity Per Floor Area {W/m2}
  1,                                      !- Fraction of Autosized Heating Design Capacity
  OnOff;                                  !- Central Cooling Capacity Control Method

OS:Schedule:Constant,
  {b4790dbf-736b-4444-879e-18ee94d44a90}, !- Handle
  Always On Discrete,                     !- Name
  {2e499b11-ba10-4993-94d7-9e884ade6cd2}, !- Schedule Type Limits Name
  1;                                      !- Value

OS:ScheduleTypeLimits,
  {2e499b11-ba10-4993-94d7-9e884ade6cd2}, !- Handle
  OnOff,                                  !- Name
  0,                                      !- Lower Limit Value
  1,                                      !- Upper Limit Value
  Discrete,                               !- Numeric Type
  Availability;                           !- Unit Type

OS:AvailabilityManagerAssignmentList,
  {c313110f-7253-4e9e-bb31-4691414d05c9}, !- Handle
  Air Loop HVAC 1 AvailabilityManagerAssignmentList; !- Name

OS:Fan:VariableVolume,
  {6d3d54b4-99cf-4050-ae08-b4b1f5d589af}, !- Handle
  Fan:VariableVolume [#LHQRIG],           !- Name
  {b4790dbf-736b-4444-879e-18ee94d44a90}, !- Availability Schedule Name
  0.6045,                                 !- Fan Efficiency
  1017.592,                               !- Pressure Rise {Pa}
  Autosize,                               !- Maximum Flow Rate {m3/s}
  FixedFlowRate,                          !- Fan Power Minimum Flow Rate Input Method
  0,                                      !- Fan Power Minimum Flow Fraction
  0,                                      !- Fan Power Minimum Air Flow Rate {m3/s}
  0.93,                                   !- Motor Efficiency
  1,                                      !- Motor In Airstream Fraction
  0.040759894,                            !- Fan Power Coefficient 1
  0.08804497,                             !- Fan Power Coefficient 2
  -0.07292612,                            !- Fan Power Coefficient 3
  0.943739823,                            !- Fan Power Coefficient 4
  0,                                      !- Fan Power Coefficient 5
  {0e8cd4dd-1705-437e-b5b9-7bfdc51df7cb}, !- Air Inlet Node Name
  {70f869f1-eeb0-4051-a560-d8e9e29a05b6}, !- Air Outlet Node Name
  ;                                       !- End-Use Subcategory

OS:Connection,
  {0e8cd4dd-1705-437e-b5b9-7bfdc51df7cb}, !- Handle
  {f728649c-fabd-42b5-a000-c6112d1922f3}, !- Name
  {eb63f226-828a-4913-bb27-5967cea85b9a}, !- Source Object
  3,                                      !- Outlet Port
  {6d3d54b4-99cf-4050-ae08-b4b1f5d589af}, !- Target Object
  16;                                     !- Inlet Port

OS:Controller:OutdoorAir,
  {dc116af2-b8d1-44b2-a4c7-04a0cf75c4ec}, !- Handle
  Controller:OutdoorAir [#dQuESG],        !- Name
  ,                                       !- Relief Air Outlet Node Name
  ,                                       !- Return Air Node Name
  ,                                       !- Mixed Air Node Name
  ,                                       !- Actuator Node Name
  0,                                      !- Minimum Outdoor Air Flow Rate {m3/s}
  Autosize,                               !- Maximum Outdoor Air Flow Rate {m3/s}
  NoEconomizer,                           !- Economizer Control Type
  ModulateFlow,                           !- Economizer Control Action Type
  28,                                     !- Economizer Maximum Limit Dry-Bulb Temperature {C}
  64000,                                  !- Economizer Maximum Limit Enthalpy {J/kg}
  ,                                       !- Economizer Maximum Limit Dewpoint Temperature {C}
  ,                                       !- Electronic Enthalpy Limit Curve Name
  -100,                                   !- Economizer Minimum Limit Dry-Bulb Temperature {C}
  NoLockout,                              !- Lockout Type
  FixedMinimum,                           !- Minimum Limit Type
  ,                                       !- Minimum Outdoor Air Schedule Name
  ,                                       !- Minimum Fraction of Outdoor Air Schedule Name
  ,                                       !- Maximum Fraction of Outdoor Air Schedule Name
  {d673950f-f4d6-41d5-bfbf-6066fb3e3eb3}, !- Controller Mechanical Ventilation
  ,                                       !- Time of Day Economizer Control Schedule Name
  No,                                     !- High Humidity Control
  ,                                       !- Humidistat Control Zone Name
  ,                                       !- High Humidity Outdoor Air Flow Ratio
  ,                                       !- Control High Indoor Humidity Based on Outdoor Humidity Ratio
  BypassWhenWithinEconomizerLimits;       !- Heat Recovery Bypass Control Type

OS:Controller:MechanicalVentilation,
  {d673950f-f4d6-41d5-bfbf-6066fb3e3eb3}, !- Handle
  Controller Mechanical Ventilation 1,    !- Name
  {b4790dbf-736b-4444-879e-18ee94d44a90}, !- Availability Schedule
  ,                                       !- Demand Controlled Ventilation
  ZoneSum;                                !- System Outdoor Air Method

OS:AirLoopHVAC:OutdoorAirSystem,
  {c9acfaf0-b6b8-4e4e-82fc-9c69200d61fa}, !- Handle
  AirLoopHVAC:OutdoorAirSystem [#VX2GO5], !- Name
  {dc116af2-b8d1-44b2-a4c7-04a0cf75c4ec}, !- Controller Name
  ,                                       !- Outdoor Air Equipment List Name
  ,                                       !- Availability Manager List Name
  {1b8ea1d8-89c3-4611-911c-c95f4492adcb}, !- Mixed Air Node Name
  {588cff30-1f54-42ce-aa14-3a2e1d475b26}, !- Outdoor Air Stream Node Name
  {a81e82b4-385d-4d1c-96eb-0fa7630cc82a}, !- Relief Air Stream Node Name
  {d7e92ec2-0555-45d9-8406-9aa5335cdb32}; !- Return Air Stream Node Name

OS:Node,
  {aace4c17-ecfd-4660-921a-22fd7864fd5d}, !- Handle
  Node 6,                                 !- Name
  ,                                       !- Inlet Port
  {588cff30-1f54-42ce-aa14-3a2e1d475b26}; !- Outlet Port

OS:Connection,
  {588cff30-1f54-42ce-aa14-3a2e1d475b26}, !- Handle
  {aed59d9c-1c69-4e35-886e-661020da6e40}, !- Name
  {aace4c17-ecfd-4660-921a-22fd7864fd5d}, !- Source Object
  3,                                      !- Outlet Port
  {c9acfaf0-b6b8-4e4e-82fc-9c69200d61fa}, !- Target Object
  6;                                      !- Inlet Port

OS:Node,
  {84f3dcbc-77b4-461c-bdd3-4a3664895382}, !- Handle
  Node 7,                                 !- Name
  {a81e82b4-385d-4d1c-96eb-0fa7630cc82a}, !- Inlet Port
  ;                                       !- Outlet Port

OS:Connection,
  {a81e82b4-385d-4d1c-96eb-0fa7630cc82a}, !- Handle
  {8e2a98a3-e49a-49d9-abc0-34ac2d1305a1}, !- Name
  {c9acfaf0-b6b8-4e4e-82fc-9c69200d61fa}, !- Source Object
  7,                                      !- Outlet Port
  {84f3dcbc-77b4-461c-bdd3-4a3664895382}, !- Target Object
  2;                                      !- Inlet Port

OS:Node,
  {eec73fef-1b84-423f-916f-2935665574db}, !- Handle
  Node 8,                                 !- Name
  {70f869f1-eeb0-4051-a560-d8e9e29a05b6}, !- Inlet Port
  {d7e92ec2-0555-45d9-8406-9aa5335cdb32}; !- Outlet Port

OS:Connection,
  {70f869f1-eeb0-4051-a560-d8e9e29a05b6}, !- Handle
  {0b7f60b5-46d1-452c-af55-d674681239df}, !- Name
  {6d3d54b4-99cf-4050-ae08-b4b1f5d589af}, !- Source Object
  17,                                     !- Outlet Port
  {eec73fef-1b84-423f-916f-2935665574db}, !- Target Object
  2;                                      !- Inlet Port

OS:Connection,
  {d7e92ec2-0555-45d9-8406-9aa5335cdb32}, !- Handle
  {5f7aab10-d109-46f2-bbfc-a6e240ff6829}, !- Name
  {eec73fef-1b84-423f-916f-2935665574db}, !- Source Object
  3,                                      !- Outlet Port
  {c9acfaf0-b6b8-4e4e-82fc-9c69200d61fa}, !- Target Object
  8;                                      !- Inlet Port

OS:Connection,
  {1b8ea1d8-89c3-4611-911c-c95f4492adcb}, !- Handle
  {f48cbb70-3129-4628-9724-a3b5b7f0b332}, !- Name
  {c9acfaf0-b6b8-4e4e-82fc-9c69200d61fa}, !- Source Object
  5,                                      !- Outlet Port
  {861617b8-4a10-4039-b9fa-ca15354fa26f}, !- Target Object
  2;                                      !- Inlet Port

OS:ThermalZone,
  {dc7e2fcc-be49-45df-b4f8-a16b69fea7c5}, !- Handle
  new Name [#Jvxj2E],                     !- Name
  ,                                       !- Multiplier
  ,                                       !- Ceiling Height {m}
  ,                                       !- Volume {m3}
  ,                                       !- Floor Area {m2}
  ,                                       !- Zone Inside Convection Algorithm
  ,                                       !- Zone Outside Convection Algorithm
  ,                                       !- Zone Conditioning Equipment List Name
  {3ba48c9b-c814-4f24-ac5b-a3412fb8a646}, !- Zone Air Inlet Port List
  {59f770c1-ac04-45d7-8438-cb25d39d1c1d}, !- Zone Air Exhaust Port List
  {18d1a976-c1d3-423c-a2b1-4ebc3da84cd3}, !- Zone Air Node Name
  {b4fb4696-27f9-4ead-bf3c-48191db4b817}, !- Zone Return Air Node Name
  ,                                       !- Primary Daylighting Control Name
  ,                                       !- Fraction of Zone Controlled by Primary Daylighting Control
  ,                                       !- Secondary Daylighting Control Name
  ,                                       !- Fraction of Zone Controlled by Secondary Daylighting Control
  ,                                       !- Illuminance Map Name
  ,                                       !- Group Rendering Name
  ,                                       !- Thermostat Name
  No;                                     !- Use Ideal Air Loads

OS:Node,
  {794e62f2-6061-4070-ad52-4aeb3a5033c7}, !- Handle
  Node 9,                                 !- Name
  {18d1a976-c1d3-423c-a2b1-4ebc3da84cd3}, !- Inlet Port
  ;                                       !- Outlet Port

OS:Connection,
  {18d1a976-c1d3-423c-a2b1-4ebc3da84cd3}, !- Handle
  {8a74bad1-cac7-41f8-a4ec-64d63515cdd6}, !- Name
  {dc7e2fcc-be49-45df-b4f8-a16b69fea7c5}, !- Source Object
  11,                                     !- Outlet Port
  {794e62f2-6061-4070-ad52-4aeb3a5033c7}, !- Target Object
  2;                                      !- Inlet Port

OS:PortList,
  {3ba48c9b-c814-4f24-ac5b-a3412fb8a646}, !- Handle
  {6eff5311-f49c-45df-a5a9-fd12819c381d}, !- Name
  {dc7e2fcc-be49-45df-b4f8-a16b69fea7c5}, !- HVAC Component
  {90c4b4ea-59c7-4f2b-9692-36b327565e5b}; !- Port 1

OS:PortList,
  {59f770c1-ac04-45d7-8438-cb25d39d1c1d}, !- Handle
  {7e3172da-5f96-4d0e-a1f0-b6234e0c314a}, !- Name
  {dc7e2fcc-be49-45df-b4f8-a16b69fea7c5}; !- HVAC Component

OS:Sizing:Zone,
  {cf3e7ab8-c9a2-4aa7-9ea7-1a387054c656}, !- Handle
  {dc7e2fcc-be49-45df-b4f8-a16b69fea7c5}, !- Zone or ZoneList Name
  SupplyAirTemperature,                   !- Zone Cooling Design Supply Air Temperature Input Method
  14,                                     !- Zone Cooling Design Supply Air Temperature {C}
  11.11,                                  !- Zone Cooling Design Supply Air Temperature Difference {deltaC}
  SupplyAirTemperature,                   !- Zone Heating Design Supply Air Temperature Input Method
  40,                                     !- Zone Heating Design Supply Air Temperature {C}
  11.11,                                  !- Zone Heating Design Supply Air Temperature Difference {deltaC}
  0.0085,                                 !- Zone Cooling Design Supply Air Humidity Ratio {kg-H2O/kg-air}
  0.008,                                  !- Zone Heating Design Supply Air Humidity Ratio {kg-H2O/kg-air}
  ,                                       !- Zone Heating Sizing Factor
  ,                                       !- Zone Cooling Sizing Factor
  DesignDay,                              !- Cooling Design Air Flow Method
  ,                                       !- Cooling Design Air Flow Rate {m3/s}
  ,                                       !- Cooling Minimum Air Flow per Zone Floor Area {m3/s-m2}
  ,                                       !- Cooling Minimum Air Flow {m3/s}
  ,                                       !- Cooling Minimum Air Flow Fraction
  DesignDay,                              !- Heating Design Air Flow Method
  ,                                       !- Heating Design Air Flow Rate {m3/s}
  ,                                       !- Heating Maximum Air Flow per Zone Floor Area {m3/s-m2}
  ,                                       !- Heating Maximum Air Flow {m3/s}
  ,                                       !- Heating Maximum Air Flow Fraction
  ,                                       !- Design Zone Air Distribution Effectiveness in Cooling Mode
  ,                                       !- Design Zone Air Distribution Effectiveness in Heating Mode
  No,                                     !- Account for Dedicated Outdoor Air System
  NeutralSupplyAir,                       !- Dedicated Outdoor Air System Control Strategy
  autosize,                               !- Dedicated Outdoor Air Low Setpoint Temperature for Design {C}
  autosize;                               !- Dedicated Outdoor Air High Setpoint Temperature for Design {C}

OS:ZoneHVAC:EquipmentList,
  {836a0f06-6031-44cd-99ff-14983efe63e7}, !- Handle
  Zone HVAC Equipment List 1,             !- Name
  {dc7e2fcc-be49-45df-b4f8-a16b69fea7c5}, !- Thermal Zone
  {5cae11a3-4b63-44f9-bdc3-e6d54124cfd6}, !- Zone Equipment 1
  1,                                      !- Zone Equipment Cooling Sequence 1
  1;                                      !- Zone Equipment Heating or No-Load Sequence 1

OS:Sizing:Zone,
  {1a307a7c-9f5e-486e-82a2-3a5032261466}, !- Handle
  {dc7e2fcc-be49-45df-b4f8-a16b69fea7c5}, !- Zone or ZoneList Name
  SupplyAirTemperature,                   !- Zone Cooling Design Supply Air Temperature Input Method
  14,                                     !- Zone Cooling Design Supply Air Temperature {C}
  11.11,                                  !- Zone Cooling Design Supply Air Temperature Difference {deltaC}
  SupplyAirTemperature,                   !- Zone Heating Design Supply Air Temperature Input Method
  40,                                     !- Zone Heating Design Supply Air Temperature {C}
  11.11,                                  !- Zone Heating Design Supply Air Temperature Difference {deltaC}
  0.0085,                                 !- Zone Cooling Design Supply Air Humidity Ratio {kg-H2O/kg-air}
  0.008,                                  !- Zone Heating Design Supply Air Humidity Ratio {kg-H2O/kg-air}
  ,                                       !- Zone Heating Sizing Factor
  ,                                       !- Zone Cooling Sizing Factor
  DesignDay,                              !- Cooling Design Air Flow Method
  ,                                       !- Cooling Design Air Flow Rate {m3/s}
  ,                                       !- Cooling Minimum Air Flow per Zone Floor Area {m3/s-m2}
  ,                                       !- Cooling Minimum Air Flow {m3/s}
  ,                                       !- Cooling Minimum Air Flow Fraction
  DesignDay,                              !- Heating Design Air Flow Method
  ,                                       !- Heating Design Air Flow Rate {m3/s}
  ,                                       !- Heating Maximum Air Flow per Zone Floor Area {m3/s-m2}
  ,                                       !- Heating Maximum Air Flow {m3/s}
  ,                                       !- Heating Maximum Air Flow Fraction
  ,                                       !- Design Zone Air Distribution Effectiveness in Cooling Mode
  ,                                       !- Design Zone Air Distribution Effectiveness in Heating Mode
  No,                                     !- Account for Dedicated Outdoor Air System
  NeutralSupplyAir,                       !- Dedicated Outdoor Air System Control Strategy
  autosize,                               !- Dedicated Outdoor Air Low Setpoint Temperature for Design {C}
  autosize;                               !- Dedicated Outdoor Air High Setpoint Temperature for Design {C}

OS:AirTerminal:SingleDuct:Uncontrolled,
  {5cae11a3-4b63-44f9-bdc3-e6d54124cfd6}, !- Handle
  AirTerminal:SingleDuct:Uncontrolled [#eMzrn2], !- Name
  {b4790dbf-736b-4444-879e-18ee94d44a90}, !- Availability Schedule Name
  {52843b4c-7964-43dd-b34f-bb2a32966ccb}, !- Inlet Air Node Name
  {bae7d5a6-a1d7-45e1-884a-82b81dddc8b2}, !- Zone Supply Air Node Name
  AutoSize;                               !- Maximum Air Flow Rate {m3/s}

OS:Node,
  {79e974a7-484c-4c4a-94d7-b88342de829f}, !- Handle
  Node 10,                                !- Name
  {b4fb4696-27f9-4ead-bf3c-48191db4b817}, !- Inlet Port
  {f7e093b9-c57b-4bad-8081-b278309ec741}; !- Outlet Port

OS:Connection,
  {90c4b4ea-59c7-4f2b-9692-36b327565e5b}, !- Handle
  {2f34c95b-dbe8-4646-a013-52611f21e5b5}, !- Name
  {88106cfe-d073-4594-91ff-f43a317d87df}, !- Source Object
  3,                                      !- Outlet Port
  {3ba48c9b-c814-4f24-ac5b-a3412fb8a646}, !- Target Object
  3;                                      !- Inlet Port

OS:Connection,
  {b4fb4696-27f9-4ead-bf3c-48191db4b817}, !- Handle
  {57979138-eb67-49f3-91c2-f26288491e4a}, !- Name
  {dc7e2fcc-be49-45df-b4f8-a16b69fea7c5}, !- Source Object
  12,                                     !- Outlet Port
  {79e974a7-484c-4c4a-94d7-b88342de829f}, !- Target Object
  2;                                      !- Inlet Port

OS:Connection,
  {f7e093b9-c57b-4bad-8081-b278309ec741}, !- Handle
  {3a8f4bf0-565a-4a21-8dec-3764a4d2c4a8}, !- Name
  {79e974a7-484c-4c4a-94d7-b88342de829f}, !- Source Object
  3,                                      !- Outlet Port
  {fbaa3eca-71ee-43af-a605-96e2cac607db}, !- Target Object
  3;                                      !- Inlet Port

OS:Connection,
  {52843b4c-7964-43dd-b34f-bb2a32966ccb}, !- Handle
  {6a60a46b-5f88-4a48-9a1b-a4b986c30cc4}, !- Name
  {c86f879a-d329-4229-a99f-2dcf7b6b65c1}, !- Source Object
  3,                                      !- Outlet Port
  {5cae11a3-4b63-44f9-bdc3-e6d54124cfd6}, !- Target Object
  3;                                      !- Inlet Port

OS:Connection,
  {bae7d5a6-a1d7-45e1-884a-82b81dddc8b2}, !- Handle
  {cf0d3f3c-fa44-4243-a822-dd610a60e31e}, !- Name
  {5cae11a3-4b63-44f9-bdc3-e6d54124cfd6}, !- Source Object
  4,                                      !- Outlet Port
  {88106cfe-d073-4594-91ff-f43a317d87df}, !- Target Object
  2;                                      !- Inlet Port

