
OS:Version,
  {ad979e75-b1f3-4dfa-8364-d8ecb4acb57e}, !- Handle
  2.4.0;                                  !- Version Identifier

OS:AirLoopHVAC,
  {12f5d913-99b9-4801-9c7a-f7e82fe700d3}, !- Handle
  Air Loop HVAC 1,                        !- Name
  ,                                       !- Controller List Name
  {5c7b83b2-62f7-4a1b-a293-1bdd6031ae39}, !- Availability Schedule
  {1aecc388-84ec-409a-9e68-f264ebc01301}, !- Availability Manager List Name
  AutoSize,                               !- Design Supply Air Flow Rate {m3/s}
  ,                                       !- Branch List Name
  ,                                       !- Connector List Name
  {66c1b7e1-3c58-4b48-a8ac-00ee336c7566}, !- Supply Side Inlet Node Name
  {5533c718-0aee-4e67-90d3-bb7fd83b3896}, !- Demand Side Outlet Node Name
  {2362683b-327a-45c4-8148-fb8f0c7c3c8d}, !- Demand Side Inlet Node A
  {5580c79a-c351-453d-bd9a-f84a522fecf0}, !- Supply Side Outlet Node A
  ,                                       !- Demand Side Inlet Node B
  ,                                       !- Supply Side Outlet Node B
  ,                                       !- Return Air Bypass Flow Temperature Setpoint Schedule Name
  {4c39fe1c-9ac1-44f1-91c9-0bd71ea75a82}, !- Demand Mixer Name
  {714839ed-5d70-4910-840a-edf2d6320dae}, !- Demand Splitter A Name
  ,                                       !- Demand Splitter B Name
  ;                                       !- Supply Splitter Name

OS:Node,
  {bc7e787d-833a-443e-b22b-2cf33d082551}, !- Handle
  Node 1,                                 !- Name
  {66c1b7e1-3c58-4b48-a8ac-00ee336c7566}, !- Inlet Port
  {405f1ad6-7077-4eeb-93d5-acf79ab8a9ea}; !- Outlet Port

OS:Node,
  {fcd68ec2-a5c7-466c-b28b-148593ee2492}, !- Handle
  Node 2,                                 !- Name
  {a9449584-5102-45d2-88db-8defd5b075d6}, !- Inlet Port
  {5580c79a-c351-453d-bd9a-f84a522fecf0}; !- Outlet Port

OS:Connection,
  {66c1b7e1-3c58-4b48-a8ac-00ee336c7566}, !- Handle
  {0d0b702e-6a1d-41d8-8c7f-f40db5561e5c}, !- Name
  {12f5d913-99b9-4801-9c7a-f7e82fe700d3}, !- Source Object
  8,                                      !- Outlet Port
  {bc7e787d-833a-443e-b22b-2cf33d082551}, !- Target Object
  2;                                      !- Inlet Port

OS:Connection,
  {5580c79a-c351-453d-bd9a-f84a522fecf0}, !- Handle
  {81ca264c-9387-4fc9-ad8f-79bec80d9564}, !- Name
  {fcd68ec2-a5c7-466c-b28b-148593ee2492}, !- Source Object
  3,                                      !- Outlet Port
  {12f5d913-99b9-4801-9c7a-f7e82fe700d3}, !- Target Object
  11;                                     !- Inlet Port

OS:Node,
  {6433f38f-1d02-44d7-a1ec-7350e2f506bf}, !- Handle
  Node 3,                                 !- Name
  {2362683b-327a-45c4-8148-fb8f0c7c3c8d}, !- Inlet Port
  {13b99ac8-eaca-423d-a082-8fd990c6112f}; !- Outlet Port

OS:Node,
  {347ab239-8dfa-4ff8-beed-9541b5a032f6}, !- Handle
  Node 4,                                 !- Name
  {5b68d5d0-e17a-438b-8e57-a4ff0f29939c}, !- Inlet Port
  {5533c718-0aee-4e67-90d3-bb7fd83b3896}; !- Outlet Port

OS:Node,
  {6757e80a-ed05-49ad-b8e5-52711919bb22}, !- Handle
  Node 5,                                 !- Name
  {8fe39276-ea9c-4c02-95c8-9211adb1ac12}, !- Inlet Port
  {208b7df7-3527-49aa-9a23-b5812e465bbb}; !- Outlet Port

OS:Connection,
  {2362683b-327a-45c4-8148-fb8f0c7c3c8d}, !- Handle
  {f4621740-cac8-4632-a1b8-824a080e720f}, !- Name
  {12f5d913-99b9-4801-9c7a-f7e82fe700d3}, !- Source Object
  10,                                     !- Outlet Port
  {6433f38f-1d02-44d7-a1ec-7350e2f506bf}, !- Target Object
  2;                                      !- Inlet Port

OS:Connection,
  {5533c718-0aee-4e67-90d3-bb7fd83b3896}, !- Handle
  {ff4dbaf0-304e-470f-be70-8c2fc0c02b49}, !- Name
  {347ab239-8dfa-4ff8-beed-9541b5a032f6}, !- Source Object
  3,                                      !- Outlet Port
  {12f5d913-99b9-4801-9c7a-f7e82fe700d3}, !- Target Object
  9;                                      !- Inlet Port

OS:AirLoopHVAC:ZoneSplitter,
  {714839ed-5d70-4910-840a-edf2d6320dae}, !- Handle
  Air Loop HVAC Zone Splitter 1,          !- Name
  {13b99ac8-eaca-423d-a082-8fd990c6112f}, !- Inlet Node Name
  {8fe39276-ea9c-4c02-95c8-9211adb1ac12}; !- Outlet Node Name 1

OS:AirLoopHVAC:ZoneMixer,
  {4c39fe1c-9ac1-44f1-91c9-0bd71ea75a82}, !- Handle
  Air Loop HVAC Zone Mixer 1,             !- Name
  {5b68d5d0-e17a-438b-8e57-a4ff0f29939c}, !- Outlet Node Name
  {208b7df7-3527-49aa-9a23-b5812e465bbb}; !- Inlet Node Name 1

OS:Connection,
  {13b99ac8-eaca-423d-a082-8fd990c6112f}, !- Handle
  {137744ee-12ae-4a98-8e3f-bdf4c8cf8f77}, !- Name
  {6433f38f-1d02-44d7-a1ec-7350e2f506bf}, !- Source Object
  3,                                      !- Outlet Port
  {714839ed-5d70-4910-840a-edf2d6320dae}, !- Target Object
  2;                                      !- Inlet Port

OS:Connection,
  {8fe39276-ea9c-4c02-95c8-9211adb1ac12}, !- Handle
  {30fecf30-0670-4e48-b2d2-8be19ce828e1}, !- Name
  {714839ed-5d70-4910-840a-edf2d6320dae}, !- Source Object
  3,                                      !- Outlet Port
  {6757e80a-ed05-49ad-b8e5-52711919bb22}, !- Target Object
  2;                                      !- Inlet Port

OS:Connection,
  {208b7df7-3527-49aa-9a23-b5812e465bbb}, !- Handle
  {3b25b927-eb61-4079-9bbf-625f34790252}, !- Name
  {6757e80a-ed05-49ad-b8e5-52711919bb22}, !- Source Object
  3,                                      !- Outlet Port
  {4c39fe1c-9ac1-44f1-91c9-0bd71ea75a82}, !- Target Object
  3;                                      !- Inlet Port

OS:Connection,
  {5b68d5d0-e17a-438b-8e57-a4ff0f29939c}, !- Handle
  {993aa160-9cb1-4f25-870b-9c23192e1179}, !- Name
  {4c39fe1c-9ac1-44f1-91c9-0bd71ea75a82}, !- Source Object
  2,                                      !- Outlet Port
  {347ab239-8dfa-4ff8-beed-9541b5a032f6}, !- Target Object
  2;                                      !- Inlet Port

OS:Sizing:System,
  {23dc7102-b306-420d-9d04-bee232007971}, !- Handle
  {12f5d913-99b9-4801-9c7a-f7e82fe700d3}, !- AirLoop Name
  Sensible,                               !- Type of Load to Size On
  Autosize,                               !- Design Outdoor Air Flow Rate {m3/s}
  0.3,                                    !- Minimum System Air Flow Ratio
  7,                                      !- Preheat Design Temperature {C}
  0.008,                                  !- Preheat Design Humidity Ratio {kg-H2O/kg-Air}
  12.8,                                   !- Precool Design Temperature {C}
  0.008,                                  !- Precool Design Humidity Ratio {kg-H2O/kg-Air}
  12.8,                                   !- Central Cooling Design Supply Air Temperature {C}
  16.7,                                   !- Central Heating Design Supply Air Temperature {C}
  NonCoincident,                          !- Sizing Option
  Yes,                                    !- 100% Outdoor Air in Cooling
  Yes,                                    !- 100% Outdoor Air in Heating
  0.0085,                                 !- Central Cooling Design Supply Air Humidity Ratio {kg-H2O/kg-Air}
  0.008,                                  !- Central Heating Design Supply Air Humidity Ratio {kg-H2O/kg-Air}
  DesignDay,                              !- Cooling Design Air Flow Method
  0,                                      !- Cooling Design Air Flow Rate {m3/s}
  DesignDay,                              !- Heating Design Air Flow Method
  0,                                      !- Heating Design Air Flow Rate {m3/s}
  ZoneSum,                                !- System Outdoor Air Method
  1,                                      !- Zone Maximum Outdoor Air Fraction {dimensionless}
  0.0099676501,                           !- Cooling Supply Air Flow Rate Per Floor Area {m3/s-m2}
  1,                                      !- Cooling Fraction of Autosized Cooling Supply Air Flow Rate
  3.9475456e-005,                         !- Cooling Supply Air Flow Rate Per Unit Cooling Capacity {m3/s-W}
  0.0099676501,                           !- Heating Supply Air Flow Rate Per Floor Area {m3/s-m2}
  1,                                      !- Heating Fraction of Autosized Heating Supply Air Flow Rate
  1,                                      !- Heating Fraction of Autosized Cooling Supply Air Flow Rate
  3.1588213e-005,                         !- Heating Supply Air Flow Rate Per Unit Heating Capacity {m3/s-W}
  CoolingDesignCapacity,                  !- Cooling Design Capacity Method
  autosize,                               !- Cooling Design Capacity {W}
  234.7,                                  !- Cooling Design Capacity Per Floor Area {W/m2}
  1,                                      !- Fraction of Autosized Cooling Design Capacity
  HeatingDesignCapacity,                  !- Heating Design Capacity Method
  autosize,                               !- Heating Design Capacity {W}
  157,                                    !- Heating Design Capacity Per Floor Area {W/m2}
  1,                                      !- Fraction of Autosized Heating Design Capacity
  OnOff;                                  !- Central Cooling Capacity Control Method

OS:Schedule:Constant,
  {5c7b83b2-62f7-4a1b-a293-1bdd6031ae39}, !- Handle
  Always On Discrete,                     !- Name
  {8000e15e-55e9-40d7-ace1-b34e9253d913}, !- Schedule Type Limits Name
  1;                                      !- Value

OS:ScheduleTypeLimits,
  {8000e15e-55e9-40d7-ace1-b34e9253d913}, !- Handle
  OnOff,                                  !- Name
  0,                                      !- Lower Limit Value
  1,                                      !- Upper Limit Value
  Discrete,                               !- Numeric Type
  Availability;                           !- Unit Type

OS:AvailabilityManagerAssignmentList,
  {1aecc388-84ec-409a-9e68-f264ebc01301}, !- Handle
  Air Loop HVAC 1 AvailabilityManagerAssignmentList; !- Name

OS:Coil:Heating:Water,
  {a249456e-162d-4b6e-98a0-060a3372fa51}, !- Handle
  Coil Heating Water 1,                   !- Name
  {5c7b83b2-62f7-4a1b-a293-1bdd6031ae39}, !- Availability Schedule Name
  ,                                       !- U-Factor Times Area Value {W/K}
  ,                                       !- Maximum Water Flow Rate {m3/s}
  ,                                       !- Water Inlet Node Name
  ,                                       !- Water Outlet Node Name
  {405f1ad6-7077-4eeb-93d5-acf79ab8a9ea}, !- Air Inlet Node Name
  {332a8c6f-3dc6-4e5d-8d31-0f7a1c75c481}, !- Air Outlet Node Name
  ,                                       !- Performance Input Method
  ,                                       !- Rated Capacity {W}
  60,                                     !- Rated Inlet Water Temperature {C}
  ,                                       !- Rated Inlet Air Temperature {C}
  71.1,                                   !- Rated Outlet Water Temperature {C}
  ,                                       !- Rated Outlet Air Temperature {C}
  ;                                       !- Rated Ratio for Air and Water Convection

OS:Connection,
  {405f1ad6-7077-4eeb-93d5-acf79ab8a9ea}, !- Handle
  {095fd511-9e11-4613-924c-45d2edd7f870}, !- Name
  {bc7e787d-833a-443e-b22b-2cf33d082551}, !- Source Object
  3,                                      !- Outlet Port
  {a249456e-162d-4b6e-98a0-060a3372fa51}, !- Target Object
  7;                                      !- Inlet Port

OS:Coil:Heating:Water,
  {3781f1c1-9c7d-43f3-ba46-5df7520478c4}, !- Handle
  Coil Heating Water 2,                   !- Name
  {5c7b83b2-62f7-4a1b-a293-1bdd6031ae39}, !- Availability Schedule Name
  ,                                       !- U-Factor Times Area Value {W/K}
  ,                                       !- Maximum Water Flow Rate {m3/s}
  ,                                       !- Water Inlet Node Name
  ,                                       !- Water Outlet Node Name
  {96ae76b1-eed0-4cda-b3d7-aec66b283eef}, !- Air Inlet Node Name
  {a9449584-5102-45d2-88db-8defd5b075d6}, !- Air Outlet Node Name
  ,                                       !- Performance Input Method
  ,                                       !- Rated Capacity {W}
  100,                                    !- Rated Inlet Water Temperature {C}
  ,                                       !- Rated Inlet Air Temperature {C}
  71.1,                                   !- Rated Outlet Water Temperature {C}
  ,                                       !- Rated Outlet Air Temperature {C}
  ;                                       !- Rated Ratio for Air and Water Convection

OS:Node,
  {a43aa49c-f6d5-4576-a844-92c09f750582}, !- Handle
  Node 6,                                 !- Name
  {332a8c6f-3dc6-4e5d-8d31-0f7a1c75c481}, !- Inlet Port
  {96ae76b1-eed0-4cda-b3d7-aec66b283eef}; !- Outlet Port

OS:Connection,
  {332a8c6f-3dc6-4e5d-8d31-0f7a1c75c481}, !- Handle
  {ab314a07-b7ae-47a1-8b4c-02bb0e0b42b4}, !- Name
  {a249456e-162d-4b6e-98a0-060a3372fa51}, !- Source Object
  8,                                      !- Outlet Port
  {a43aa49c-f6d5-4576-a844-92c09f750582}, !- Target Object
  2;                                      !- Inlet Port

OS:Connection,
  {96ae76b1-eed0-4cda-b3d7-aec66b283eef}, !- Handle
  {faa06a60-255f-4b92-b667-8328ea93a79d}, !- Name
  {a43aa49c-f6d5-4576-a844-92c09f750582}, !- Source Object
  3,                                      !- Outlet Port
  {3781f1c1-9c7d-43f3-ba46-5df7520478c4}, !- Target Object
  7;                                      !- Inlet Port

OS:Connection,
  {a9449584-5102-45d2-88db-8defd5b075d6}, !- Handle
  {4d4d73d9-95be-410c-aee3-57a6fdc3ea45}, !- Name
  {3781f1c1-9c7d-43f3-ba46-5df7520478c4}, !- Source Object
  8,                                      !- Outlet Port
  {fcd68ec2-a5c7-466c-b28b-148593ee2492}, !- Target Object
  2;                                      !- Inlet Port

