
OS:Version,
  {8189f50b-1055-4d2b-b00c-e37e7fc3e90c}, !- Handle
  2.4.0;                                  !- Version Identifier

OS:RunPeriod,
  {2aa929de-9564-4731-90d4-d1b04981df69}, !- Handle
  Run Period 1,                           !- Name
  1,                                      !- Begin Month
  1,                                      !- Begin Day of Month
  12,                                     !- End Month
  31,                                     !- End Day of Month
  ,                                       !- Use Weather File Holidays and Special Days
  ,                                       !- Use Weather File Daylight Saving Period
  ,                                       !- Apply Weekend Holiday Rule
  ,                                       !- Use Weather File Rain Indicators
  ,                                       !- Use Weather File Snow Indicators
  ;                                       !- Number of Times Runperiod to be Repeated

OS:Timestep,
  {8c5a11a9-0b59-452a-804f-d3d374c6f83c}, !- Handle
  6;                                      !- Number of Timesteps per Hour

OS:Building,
  {df70cd6c-30e0-47f0-b9f3-b38266600328}, !- Handle
  Building 1,                             !- Name
  ,                                       !- Building Sector Type
  0,                                      !- North Axis {deg}
  ,                                       !- Nominal Floor to Floor Height {m}
  ,                                       !- Space Type Name
  ,                                       !- Default Construction Set Name
  ;                                       !- Default Schedule Set Name

OS:Site,
  {0d5eb649-7c47-42a2-b738-a9fb2fdad072}, !- Handle
  Boston Logan IntL Arpt	USA,             !- Name
  42.37,                                  !- Latitude {deg}
  -71.02,                                 !- Longitude {deg}
  -5,                                     !- Time Zone {hr}
  6,                                      !- Elevation {m}
  City;                                   !- Terrain

OS:WeatherFile,
  {3411ae76-6b60-4b32-9cfb-be10f742f9e5}, !- Handle
  Boston Logan IntL Arpt,                 !- City
  MA,                                     !- State Province Region
  USA,                                    !- Country
  TMY3,                                   !- Data Source
  725090,                                 !- WMO Number
  42.37,                                  !- Latitude {deg}
  -71.02,                                 !- Longitude {deg}
  -5,                                     !- Time Zone {hr}
  6,                                      !- Elevation {m}
  file:files/Boston_Logan_IntL_Arpt_MA_USA.epw, !- Url
  B65824C3;                               !- Checksum

OS:SimulationControl,
  {6f7f694e-a2c8-4eb8-b69b-12f1fc24ccb3}, !- Handle
  Yes,                                    !- Do Zone Sizing Calculation
  Yes,                                    !- Do System Sizing Calculation
  Yes,                                    !- Do Plant Sizing Calculation
  No,                                     !- Run Simulation for Sizing Periods
  Yes,                                    !- Run Simulation for Weather File Run Periods
  ,                                       !- Loads Convergence Tolerance Value
  ,                                       !- Temperature Convergence Tolerance Value {deltaC}
  FullInteriorAndExteriorWithReflections; !- Solar Distribution

OS:ShadowCalculation,
  {31a694d2-edfd-4c78-8f6f-e926c80338ff}, !- Handle
  30,                                     !- Calculation Frequency
  3000;                                   !- Maximum Figures in Shadow Overlap Calculations

OS:Sizing:Parameters,
  {c9dc5d88-63bc-4dc0-a791-0406d8a458ce}, !- Handle
  1.25,                                   !- Heating Sizing Factor
  1.15;                                   !- Cooling Sizing Factor

OS:SizingPeriod:DesignDay,
  {a8546057-8b9b-442f-8c6f-b773cdb233ab}, !- Handle
  Ann Clg .4% Condns Enth=>MDB,           !- Name
  31.1,                                   !- Maximum Dry-Bulb Temperature {C}
  8.56,                                   !- Daily Dry-Bulb Temperature Range {deltaC}
  71572,                                  !- Humidity Indicating Conditions at Maximum Dry-Bulb
  101468,                                 !- Barometric Pressure {Pa}
  6.7,                                    !- Wind Speed {m/s}
  231,                                    !- Wind Direction {deg}
  1.2,                                    !- Sky Clearness
  0,                                      !- Rain Indicator
  0,                                      !- Snow Indicator
  21,                                     !- Day of Month
  7,                                      !- Month
  SummerDesignDay,                        !- Day Type
  0,                                      !- Daylight Saving Time Indicator
  Enthalpy,                               !- Humidity Indicating Type
  ,                                       !- Humidity Indicating Day Schedule Name
  DefaultMultipliers,                     !- Dry-Bulb Temperature Range Modifier Type
  ,                                       !- Dry-Bulb Temperature Range Modifier Schedule Name
  ASHRAEClearSky;                         !- Solar Model Indicator

OS:SizingPeriod:DesignDay,
  {213df94f-d95a-4326-b036-f0574b06979e}, !- Handle
  Ann Htg Wind 99.6% Condns WS=>MCDB,     !- Name
  0,                                      !- Maximum Dry-Bulb Temperature {C}
  0,                                      !- Daily Dry-Bulb Temperature Range {deltaC}
  0,                                      !- Humidity Indicating Conditions at Maximum Dry-Bulb
  101468,                                 !- Barometric Pressure {Pa}
  13.9,                                   !- Wind Speed {m/s}
  278,                                    !- Wind Direction {deg}
  0,                                      !- Sky Clearness
  0,                                      !- Rain Indicator
  0,                                      !- Snow Indicator
  21,                                     !- Day of Month
  1,                                      !- Month
  WinterDesignDay,                        !- Day Type
  0,                                      !- Daylight Saving Time Indicator
  Wetbulb,                                !- Humidity Indicating Type
  ,                                       !- Humidity Indicating Day Schedule Name
  DefaultMultipliers,                     !- Dry-Bulb Temperature Range Modifier Type
  ,                                       !- Dry-Bulb Temperature Range Modifier Schedule Name
  ASHRAEClearSky;                         !- Solar Model Indicator

OS:SizingPeriod:DesignDay,
  {87c49069-e7e3-430f-a348-07beec73823b}, !- Handle
  Ann Htg 99.6% Condns DB,                !- Name
  -13.3,                                  !- Maximum Dry-Bulb Temperature {C}
  0,                                      !- Daily Dry-Bulb Temperature Range {deltaC}
  -13.3,                                  !- Humidity Indicating Conditions at Maximum Dry-Bulb
  101468,                                 !- Barometric Pressure {Pa}
  7.7,                                    !- Wind Speed {m/s}
  278,                                    !- Wind Direction {deg}
  0,                                      !- Sky Clearness
  0,                                      !- Rain Indicator
  0,                                      !- Snow Indicator
  21,                                     !- Day of Month
  1,                                      !- Month
  WinterDesignDay,                        !- Day Type
  0,                                      !- Daylight Saving Time Indicator
  Wetbulb,                                !- Humidity Indicating Type
  ,                                       !- Humidity Indicating Day Schedule Name
  DefaultMultipliers,                     !- Dry-Bulb Temperature Range Modifier Type
  ,                                       !- Dry-Bulb Temperature Range Modifier Schedule Name
  ASHRAEClearSky;                         !- Solar Model Indicator

OS:SizingPeriod:DesignDay,
  {d24c9fa7-f946-4c7e-b7d4-b1dfa3103927}, !- Handle
  Ann Hum_n 99.6% Condns DP=>MCDB,        !- Name
  -14.4,                                  !- Maximum Dry-Bulb Temperature {C}
  0,                                      !- Daily Dry-Bulb Temperature Range {deltaC}
  -25,                                    !- Humidity Indicating Conditions at Maximum Dry-Bulb
  101468,                                 !- Barometric Pressure {Pa}
  7.7,                                    !- Wind Speed {m/s}
  278,                                    !- Wind Direction {deg}
  0,                                      !- Sky Clearness
  0,                                      !- Rain Indicator
  0,                                      !- Snow Indicator
  21,                                     !- Day of Month
  1,                                      !- Month
  WinterDesignDay,                        !- Day Type
  0,                                      !- Daylight Saving Time Indicator
  Dewpoint,                               !- Humidity Indicating Type
  ,                                       !- Humidity Indicating Day Schedule Name
  DefaultMultipliers,                     !- Dry-Bulb Temperature Range Modifier Type
  ,                                       !- Dry-Bulb Temperature Range Modifier Schedule Name
  ASHRAEClearSky;                         !- Solar Model Indicator

OS:SizingPeriod:DesignDay,
  {bf35b217-636f-4d12-a0fa-819172fd4925}, !- Handle
  Ann Clg .4% Condns DB=>MWB,             !- Name
  32.8,                                   !- Maximum Dry-Bulb Temperature {C}
  8.56,                                   !- Daily Dry-Bulb Temperature Range {deltaC}
  21.972,                                 !- Humidity Indicating Conditions at Maximum Dry-Bulb
  101468,                                 !- Barometric Pressure {Pa}
  6.7,                                    !- Wind Speed {m/s}
  231,                                    !- Wind Direction {deg}
  1.2,                                    !- Sky Clearness
  0,                                      !- Rain Indicator
  0,                                      !- Snow Indicator
  21,                                     !- Day of Month
  7,                                      !- Month
  SummerDesignDay,                        !- Day Type
  0,                                      !- Daylight Saving Time Indicator
  Wetbulb,                                !- Humidity Indicating Type
  ,                                       !- Humidity Indicating Day Schedule Name
  DefaultMultipliers,                     !- Dry-Bulb Temperature Range Modifier Type
  ,                                       !- Dry-Bulb Temperature Range Modifier Schedule Name
  ASHRAEClearSky;                         !- Solar Model Indicator

OS:SizingPeriod:DesignDay,
  {d3e14cf1-ac8f-4791-9d74-a624afb4c3d7}, !- Handle
  Ann Clg .4% Condns WB=>MDB,             !- Name
  31.7,                                   !- Maximum Dry-Bulb Temperature {C}
  8.56,                                   !- Daily Dry-Bulb Temperature Range {deltaC}
  23.911,                                 !- Humidity Indicating Conditions at Maximum Dry-Bulb
  101468,                                 !- Barometric Pressure {Pa}
  6.7,                                    !- Wind Speed {m/s}
  231,                                    !- Wind Direction {deg}
  1.2,                                    !- Sky Clearness
  0,                                      !- Rain Indicator
  0,                                      !- Snow Indicator
  21,                                     !- Day of Month
  7,                                      !- Month
  SummerDesignDay,                        !- Day Type
  0,                                      !- Daylight Saving Time Indicator
  Wetbulb,                                !- Humidity Indicating Type
  ,                                       !- Humidity Indicating Day Schedule Name
  DefaultMultipliers,                     !- Dry-Bulb Temperature Range Modifier Type
  ,                                       !- Dry-Bulb Temperature Range Modifier Schedule Name
  ASHRAEClearSky;                         !- Solar Model Indicator

OS:SizingPeriod:DesignDay,
  {b369c835-35d4-4886-895c-c062ff583003}, !- Handle
  Ann Clg .4% Condns DP=>MDB,             !- Name
  27.8,                                   !- Maximum Dry-Bulb Temperature {C}
  8.56,                                   !- Daily Dry-Bulb Temperature Range {deltaC}
  22.2,                                   !- Humidity Indicating Conditions at Maximum Dry-Bulb
  101468,                                 !- Barometric Pressure {Pa}
  6.7,                                    !- Wind Speed {m/s}
  231,                                    !- Wind Direction {deg}
  1.2,                                    !- Sky Clearness
  0,                                      !- Rain Indicator
  0,                                      !- Snow Indicator
  21,                                     !- Day of Month
  7,                                      !- Month
  SummerDesignDay,                        !- Day Type
  0,                                      !- Daylight Saving Time Indicator
  Dewpoint,                               !- Humidity Indicating Type
  ,                                       !- Humidity Indicating Day Schedule Name
  DefaultMultipliers,                     !- Dry-Bulb Temperature Range Modifier Type
  ,                                       !- Dry-Bulb Temperature Range Modifier Schedule Name
  ASHRAEClearSky;                         !- Solar Model Indicator

OS:BuildingStory,
  {9fbb72c1-3367-46ce-88dc-2eab0a9748bc}, !- Handle
  Building Story 1,                       !- Name
  0,                                      !- Nominal Z Coordinate {m}
  ,                                       !- Nominal Floor to Floor Height {m}
  ,                                       !- Default Construction Set Name
  ,                                       !- Default Schedule Set Name
  ;                                       !- Group Rendering Name

OS:WindowMaterial:Glazing,
  {8f64dd48-1d7b-489e-b0c7-e9e4416cc617}, !- Handle
  Clear 3mm,                              !- Name
  SpectralAverage,                        !- Optical Data Type
  ,                                       !- Window Glass Spectral Data Set Name
  0.00299999999999999,                    !- Thickness {m}
  0.837,                                  !- Solar Transmittance at Normal Incidence
  0.075,                                  !- Front Side Solar Reflectance at Normal Incidence
  0,                                      !- Back Side Solar Reflectance at Normal Incidence
  0.898,                                  !- Visible Transmittance at Normal Incidence
  0.081,                                  !- Front Side Visible Reflectance at Normal Incidence
  0,                                      !- Back Side Visible Reflectance at Normal Incidence
  0,                                      !- Infrared Transmittance at Normal Incidence
  0.84,                                   !- Front Side Infrared Hemispherical Emissivity
  0.84,                                   !- Back Side Infrared Hemispherical Emissivity
  0.9,                                    !- Conductivity {W/m-K}
  1;                                      !- Dirt Correction Factor for Solar and Visible Transmittance

OS:WindowMaterial:Gas,
  {b961a99e-df30-4dae-b009-dc88a015a026}, !- Handle
  Air 13mm,                               !- Name
  Air,                                    !- Gas Type
  0.0127;                                 !- Thickness {m}

OS:Construction,
  {1dc4ee52-273e-4aab-a2d3-edf7341a7f1e}, !- Handle
  Exterior Window,                        !- Name
  ,                                       !- Surface Rendering Name
  {8f64dd48-1d7b-489e-b0c7-e9e4416cc617}, !- Layer 1
  {b961a99e-df30-4dae-b009-dc88a015a026}, !- Layer 2
  {8f64dd48-1d7b-489e-b0c7-e9e4416cc617}; !- Layer 3

OS:Material,
  {e6e71fa0-1d48-4ecb-93be-a6aecf49164d}, !- Handle
  F16 Acoustic tile,                      !- Name
  MediumSmooth,                           !- Roughness
  0.0191,                                 !- Thickness {m}
  0.06,                                   !- Conductivity {W/m-K}
  368,                                    !- Density {kg/m3}
  590.000000000002,                       !- Specific Heat {J/kg-K}
  0.9,                                    !- Thermal Absorptance
  0.3,                                    !- Solar Absorptance
  0.3;                                    !- Visible Absorptance

OS:Material:AirGap,
  {16874a57-6cea-4695-9ace-d4949178ccc5}, !- Handle
  Material Air Gap 1,                     !- Name
  0.18;                                   !- Thermal Resistance {m2-K/W}

OS:Material,
  {798a85a8-2547-419c-9634-cd055b2c55bf}, !- Handle
  M11 100mm lightweight concrete,         !- Name
  MediumRough,                            !- Roughness
  0.1016,                                 !- Thickness {m}
  0.53,                                   !- Conductivity {W/m-K}
  1280,                                   !- Density {kg/m3}
  840.000000000002,                       !- Specific Heat {J/kg-K}
  0.9,                                    !- Thermal Absorptance
  0.5,                                    !- Solar Absorptance
  0.5;                                    !- Visible Absorptance

OS:Construction,
  {b2236907-9627-479d-900b-2ca37948f8f1}, !- Handle
  Interior Floor,                         !- Name
  ,                                       !- Surface Rendering Name
  {e6e71fa0-1d48-4ecb-93be-a6aecf49164d}, !- Layer 1
  {16874a57-6cea-4695-9ace-d4949178ccc5}, !- Layer 2
  {798a85a8-2547-419c-9634-cd055b2c55bf}; !- Layer 3

OS:Material,
  {3d2fc403-bb68-4487-829b-1feecf4f8e01}, !- Handle
  G01a 19mm gypsum board,                 !- Name
  MediumSmooth,                           !- Roughness
  0.019,                                  !- Thickness {m}
  0.16,                                   !- Conductivity {W/m-K}
  800,                                    !- Density {kg/m3}
  1090,                                   !- Specific Heat {J/kg-K}
  0.9,                                    !- Thermal Absorptance
  0.4,                                    !- Solar Absorptance
  0.4;                                    !- Visible Absorptance

OS:Material:AirGap,
  {a96f95fa-73ae-4a70-b6b3-763272f9df64}, !- Handle
  Material Air Gap 2,                     !- Name
  0.15;                                   !- Thermal Resistance {m2-K/W}

OS:Construction,
  {e50bf43c-900d-429e-853f-f8740ff96961}, !- Handle
  Interior Wall,                          !- Name
  ,                                       !- Surface Rendering Name
  {3d2fc403-bb68-4487-829b-1feecf4f8e01}, !- Layer 1
  {a96f95fa-73ae-4a70-b6b3-763272f9df64}, !- Layer 2
  {3d2fc403-bb68-4487-829b-1feecf4f8e01}; !- Layer 3

OS:Material,
  {e54bb868-aec5-4b73-8d0e-9028c30f5f0d}, !- Handle
  M01 100mm brick,                        !- Name
  MediumRough,                            !- Roughness
  0.1016,                                 !- Thickness {m}
  0.89,                                   !- Conductivity {W/m-K}
  1920,                                   !- Density {kg/m3}
  790,                                    !- Specific Heat {J/kg-K}
  0.9,                                    !- Thermal Absorptance
  0.7,                                    !- Solar Absorptance
  0.7;                                    !- Visible Absorptance

OS:Material,
  {11b057c9-190c-4675-a73c-0abd27f529b3}, !- Handle
  M15 200mm heavyweight concrete,         !- Name
  MediumRough,                            !- Roughness
  0.2032,                                 !- Thickness {m}
  1.95,                                   !- Conductivity {W/m-K}
  2240,                                   !- Density {kg/m3}
  900,                                    !- Specific Heat {J/kg-K}
  0.9,                                    !- Thermal Absorptance
  0.7,                                    !- Solar Absorptance
  0.7;                                    !- Visible Absorptance

OS:Material,
  {e9db80c2-1f8a-4817-9d6d-e40235cada4f}, !- Handle
  I02 50mm insulation board,              !- Name
  MediumRough,                            !- Roughness
  0.0508,                                 !- Thickness {m}
  0.03,                                   !- Conductivity {W/m-K}
  43,                                     !- Density {kg/m3}
  1210,                                   !- Specific Heat {J/kg-K}
  0.9,                                    !- Thermal Absorptance
  0.7,                                    !- Solar Absorptance
  0.7;                                    !- Visible Absorptance

OS:Construction,
  {7a051c56-782b-471f-8de1-51e88dbb47ca}, !- Handle
  Exterior Wall,                          !- Name
  ,                                       !- Surface Rendering Name
  {e54bb868-aec5-4b73-8d0e-9028c30f5f0d}, !- Layer 1
  {11b057c9-190c-4675-a73c-0abd27f529b3}, !- Layer 2
  {e9db80c2-1f8a-4817-9d6d-e40235cada4f}, !- Layer 3
  {a96f95fa-73ae-4a70-b6b3-763272f9df64}, !- Layer 4
  {3d2fc403-bb68-4487-829b-1feecf4f8e01}; !- Layer 5

OS:Construction,
  {84d8923a-156b-4ad2-b7b1-e1997548cc84}, !- Handle
  Exterior Roof,                          !- Name
  ,                                       !- Surface Rendering Name
  {798a85a8-2547-419c-9634-cd055b2c55bf}, !- Layer 1
  {16874a57-6cea-4695-9ace-d4949178ccc5}, !- Layer 2
  {e6e71fa0-1d48-4ecb-93be-a6aecf49164d}; !- Layer 3

OS:DefaultConstructionSet,
  {b85fec84-ae35-42c6-aa1d-95120b6353f8}, !- Handle
  Default Construction Set 1,             !- Name
  {ba681fab-92d5-4baa-9333-48e646ce9dc2}, !- Default Exterior Surface Constructions Name
  {e039d852-09eb-49ad-beb2-1be640cba267}, !- Default Interior Surface Constructions Name
  {2443ae76-abca-42c1-a34f-03fa8fed4a0b}, !- Default Ground Contact Surface Constructions Name
  {34316dcb-6083-45b1-ae4e-1e040b49ecce}, !- Default Exterior SubSurface Constructions Name
  {59a16ed6-b209-4eb8-a5cd-c0d98812554a}, !- Default Interior SubSurface Constructions Name
  ,                                       !- Interior Partition Construction Name
  ,                                       !- Space Shading Construction Name
  ,                                       !- Building Shading Construction Name
  ;                                       !- Site Shading Construction Name

OS:DefaultSurfaceConstructions,
  {ba681fab-92d5-4baa-9333-48e646ce9dc2}, !- Handle
  Default Surface Constructions 1,        !- Name
  ,                                       !- Floor Construction Name
  {7a051c56-782b-471f-8de1-51e88dbb47ca}, !- Wall Construction Name
  {84d8923a-156b-4ad2-b7b1-e1997548cc84}; !- Roof Ceiling Construction Name

OS:DefaultSurfaceConstructions,
  {e039d852-09eb-49ad-beb2-1be640cba267}, !- Handle
  Default Surface Constructions 2,        !- Name
  ,                                       !- Floor Construction Name
  {e50bf43c-900d-429e-853f-f8740ff96961}, !- Wall Construction Name
  ;                                       !- Roof Ceiling Construction Name

OS:DefaultSurfaceConstructions,
  {2443ae76-abca-42c1-a34f-03fa8fed4a0b}, !- Handle
  Default Surface Constructions 3,        !- Name
  {b2236907-9627-479d-900b-2ca37948f8f1}, !- Floor Construction Name
  ,                                       !- Wall Construction Name
  ;                                       !- Roof Ceiling Construction Name

OS:DefaultSubSurfaceConstructions,
  {34316dcb-6083-45b1-ae4e-1e040b49ecce}, !- Handle
  Default Sub Surface Constructions 1,    !- Name
  {1dc4ee52-273e-4aab-a2d3-edf7341a7f1e}, !- Fixed Window Construction Name
  ,                                       !- Operable Window Construction Name
  ,                                       !- Door Construction Name
  ,                                       !- Glass Door Construction Name
  ,                                       !- Overhead Door Construction Name
  ,                                       !- Skylight Construction Name
  ,                                       !- Tubular Daylight Dome Construction Name
  ;                                       !- Tubular Daylight Diffuser Construction Name

OS:DefaultSubSurfaceConstructions,
  {59a16ed6-b209-4eb8-a5cd-c0d98812554a}, !- Handle
  Default Sub Surface Constructions 2,    !- Name
  ,                                       !- Fixed Window Construction Name
  ,                                       !- Operable Window Construction Name
  ,                                       !- Door Construction Name
  ,                                       !- Glass Door Construction Name
  ,                                       !- Overhead Door Construction Name
  ,                                       !- Skylight Construction Name
  ,                                       !- Tubular Daylight Dome Construction Name
  ;                                       !- Tubular Daylight Diffuser Construction Name

OS:Space,
  {275c2b9d-a597-437c-9b6d-b5d91bcb68c7}, !- Handle
  zone_0_space,                           !- Name
  {0c75c8f6-ab3e-4717-ab7a-578dae44fbe0}, !- Space Type Name
  {b85fec84-ae35-42c6-aa1d-95120b6353f8}, !- Default Construction Set Name
  ,                                       !- Default Schedule Set Name
  ,                                       !- Direction of Relative North {deg}
  ,                                       !- X Origin {m}
  ,                                       !- Y Origin {m}
  ,                                       !- Z Origin {m}
  {9fbb72c1-3367-46ce-88dc-2eab0a9748bc}, !- Building Story Name
  {dc76c697-8aef-4337-b010-6cc5e78afd9e}; !- Thermal Zone Name

OS:SpaceType,
  {0c75c8f6-ab3e-4717-ab7a-578dae44fbe0}, !- Handle
  Office:OpenOffice:zone_0,               !- Name
  ,                                       !- Default Construction Set Name
  {0c16b07a-bf6f-4f7d-b1d2-bd3962456dd5}, !- Default Schedule Set Name
  {b5448eef-aee1-45bf-bb23-aa80da435e46}, !- Group Rendering Name
  {1e8edfae-1c8c-4c22-b71f-f9a6361d9e94}; !- Design Specification Outdoor Air Object Name

OS:DefaultScheduleSet,
  {0c16b07a-bf6f-4f7d-b1d2-bd3962456dd5}, !- Handle
  zone_0_DefaultScheduleSet,              !- Name
  {1be9aaa8-0934-4fb3-a839-807d91e3786a}, !- Hours of Operation Schedule Name
  ,                                       !- Number of People Schedule Name
  {12da649a-ce63-40b3-a6de-799655cd5209}, !- People Activity Level Schedule Name
  {c105d04b-1ab3-4ffc-8ddd-8473433d3777}, !- Lighting Schedule Name
  {72a17289-5c8f-41fc-9b64-2fa86b92f757}, !- Electric Equipment Schedule Name
  ,                                       !- Gas Equipment Schedule Name
  ,                                       !- Hot Water Equipment Schedule Name
  {57e2d21b-d015-4e5c-9b7a-c147b938660d}, !- Infiltration Schedule Name
  ,                                       !- Steam Equipment Schedule Name
  ;                                       !- Other Equipment Schedule Name

OS:ScheduleTypeLimits,
  {21afdaab-00c1-454f-b9ec-53b43b51b074}, !- Handle
  Schedule Type Limits 1,                 !- Name
  0,                                      !- Lower Limit Value
  1,                                      !- Upper Limit Value
  CONTINUOUS;                             !- Numeric Type

OS:Schedule:Year,
  {57e2d21b-d015-4e5c-9b7a-c147b938660d}, !- Handle
  Medium Office Infil Quarter On,         !- Name
  {21afdaab-00c1-454f-b9ec-53b43b51b074}, !- Schedule Type Limits Name
  1,                                      !- Month 1
  3,                                      !- Day 1
  {ee082961-0bd4-41b8-8f3f-f8cda875cdde}, !- Week Schedule Until Date 1
  12,                                     !- Month 2
  31,                                     !- Day 2
  {f9c7787e-6f48-4e38-bbe2-c394c1bd97bd}; !- Week Schedule Until Date 2

OS:Schedule:Week,
  {ee082961-0bd4-41b8-8f3f-f8cda875cdde}, !- Handle
  Schedule:Week:Daily {10ec3e5a-5294-46cc-8ada-f12e209007b8}, !- Name
  ,                                       !- Schedule Rendering Name
  {ccfec539-1e98-46bf-9a38-ef58c92d56e0}, !- Sunday Schedule:Day Name
  {ccfec539-1e98-46bf-9a38-ef58c92d56e0}, !- Monday Schedule:Day Name
  {ccfec539-1e98-46bf-9a38-ef58c92d56e0}, !- Tuesday Schedule:Day Name
  {ccfec539-1e98-46bf-9a38-ef58c92d56e0}, !- Wednesday Schedule:Day Name
  {ccfec539-1e98-46bf-9a38-ef58c92d56e0}, !- Thursday Schedule:Day Name
  {ccfec539-1e98-46bf-9a38-ef58c92d56e0}, !- Friday Schedule:Day Name
  {d31d1a34-87b1-45de-8dfb-f697c0568568}, !- Saturday Schedule:Day Name
  {ccfec539-1e98-46bf-9a38-ef58c92d56e0}, !- Holiday Schedule:Day Name
  {85c3bbd7-4b13-444a-a23e-ff2b16834c0d}, !- SummerDesignDay Schedule:Day Name
  {d8935f95-8f53-466a-9033-be4f62fc90fc}, !- WinterDesignDay Schedule:Day Name
  {ccfec539-1e98-46bf-9a38-ef58c92d56e0}, !- CustomDay1 Schedule:Day Name
  {ccfec539-1e98-46bf-9a38-ef58c92d56e0}; !- CustomDay2 Schedule:Day Name

OS:Schedule:Day,
  {ccfec539-1e98-46bf-9a38-ef58c92d56e0}, !- Handle
  Medium Office Infil Quarter On Default Schedule, !- Name
  {21afdaab-00c1-454f-b9ec-53b43b51b074}, !- Schedule Type Limits Name
  ,                                       !- Interpolate to Timestep
  6,                                      !- Hour 1
  0,                                      !- Minute 1
  1,                                      !- Value Until Time 1
  22,                                     !- Hour 2
  0,                                      !- Minute 2
  0.25,                                   !- Value Until Time 2
  24,                                     !- Hour 3
  0,                                      !- Minute 3
  1;                                      !- Value Until Time 3

OS:Schedule:Day,
  {d31d1a34-87b1-45de-8dfb-f697c0568568}, !- Handle