
OS:Version,
  {828c9afb-6439-4f45-88e4-52d7532eb169}, !- Handle
  3.6.1;                                  !- Version Identifier

OS:Site,
  {77a36210-68da-4828-88bb-7d6ae5f39aa2}, !- Handle
  Site 1,                                 !- Name
  39.7653,                                !- Latitude {deg}
  39.7653,                                !- Longitude {deg}
  ,                                       !- Time Zone {hr}
  ,                                       !- Elevation {m}
  ;                                       !- Terrain

OS:YearDescription,
  {2193eff6-302a-4457-9a02-7b1dfdad5c71}; !- Handle

OS:ClimateZones,
  {9892c81c-b600-4f18-850c-d207223a60f9}, !- Handle
  ASHRAE,                                 !- Climate Zone Institution Name 1
  ANSI/ASHRAE Standard 169,               !- Climate Zone Document Name 1
  2006,                                   !- Climate Zone Document Year 1
  ,                                       !- Climate Zone Value 1
  CEC,                                    !- Climate Zone Institution Name 2
  California Climate Zone Descriptions,   !- Climate Zone Document Name 2
  1995,                                   !- Climate Zone Document Year 2
  ;                                       !- Climate Zone Value 2

OS:Building,
  {fdbf5a36-0a5c-44d5-bb6d-cc5b695dde6f}, !- Handle
  Building 1,                             !- Name
  ,                                       !- Building Sector Type
  -0,                                     !- North Axis {deg}
  ,                                       !- Nominal Floor to Floor Height {m}
  ,                                       !- Space Type Name
  ,                                       !- Default Construction Set Name
  ;                                       !- Default Schedule Set Name

OS:Facility,
  {3cff8ea0-d54d-4a32-af54-a64ee1d7cff4}; !- Handle

OS:SimulationControl,
  {3f223411-c45c-4055-881e-9c66f8ff0a57}; !- Handle

OS:Sizing:Parameters,
  {a7beb3d7-a479-44eb-b581-e45652d9ca45}, !- Handle
  1.25,                                   !- Heating Sizing Factor
  1.15;                                   !- Cooling Sizing Factor

OS:Timestep,
  {a5a13e81-b8d6-4018-80f6-005e9b28e65d}, !- Handle
  6;                                      !- Number of Timesteps per Hour

OS:ShadowCalculation,
  {25b94a47-356b-497c-8110-49f79e6441e3}, !- Handle
  PolygonClipping,                        !- Shading Calculation Method
  ,                                       !- Shading Calculation Update Frequency Method
  20,                                     !- Shading Calculation Update Frequency
  15000,                                  !- Maximum Figures in Shadow Overlap Calculations
  ,                                       !- Polygon Clipping Algorithm
  512,                                    !- Pixel Counting Resolution
  ,                                       !- Sky Diffuse Modeling Algorithm
  No,                                     !- Output External Shading Calculation Results
  No,                                     !- Disable Self-Shading Within Shading Zone Groups
  No;                                     !- Disable Self-Shading From Shading Zone Groups to Other Zones

OS:HeatBalanceAlgorithm,
  {28818286-a12c-4315-be52-be974480d894}, !- Handle
  ConductionTransferFunction,             !- Algorithm
  200;                                    !- Surface Temperature Upper Limit {C}

OS:RunPeriod,
  {a78cabf9-886b-4a40-ace9-0e40cb08b0b6}, !- Handle
  Run Period 1,                           !- Name
  1,                                      !- Begin Month
  1,                                      !- Begin Day of Month
  12,                                     !- End Month
  31,                                     !- End Day of Month
  ,                                       !- Use Weather File Holidays and Special Days
  ,                                       !- Use Weather File Daylight Saving Period
  ,                                       !- Apply Weekend Holiday Rule
  ,                                       !- Use Weather File Rain Indicators
  ,                                       !- Use Weather File Snow Indicators
  ;                                       !- Number of Times Runperiod to be Repeated

OS:LifeCycleCost:Parameters,
  {9c996b68-155b-43de-bcd0-b4de9a9877f8}, !- Handle
  ,                                       !- Analysis Type
  ,                                       !- Discounting Convention
  ,                                       !- Inflation Approach
  ,                                       !- Real Discount Rate
  ,                                       !- Nominal Discount Rate
  ,                                       !- Inflation
  ,                                       !- Base Date Month
  ,                                       !- Base Date Year
  ,                                       !- Service Date Month
  ,                                       !- Service Date Year
  ;                                       !- Length of Study Period in Years

OS:Space,
  {dcf25a4a-7645-4356-bd56-87d131a8c802}, !- Handle
  Space 1 - 1,                            !- Name
  ,                                       !- Space Type Name
  ,                                       !- Default Construction Set Name
  ,                                       !- Default Schedule Set Name
  ,                                       !- Direction of Relative North {deg}
  ,                                       !- X Origin {m}
  ,                                       !- Y Origin {m}
  ,                                       !- Z Origin {m}
  {6217c5be-9302-45ac-8c84-042f46d39ce6}, !- Building Story Name
  ,                                       !- Thermal Zone Name
  ,                                       !- Part of Total Floor Area
  ,                                       !- Design Specification Outdoor Air Object Name
  ;                                       !- Building Unit Name

OS:BuildingStory,
  {6217c5be-9302-45ac-8c84-042f46d39ce6}, !- Handle
  Story 1,                                !- Name
  0,                                      !- Nominal Z Coordinate {m}
  2.4384,                                 !- Nominal Floor to Floor Height {m}
  ,                                       !- Default Construction Set Name
  ,                                       !- Default Schedule Set Name
  {0b30b4cc-e71b-4f4e-af8e-7bf25e2a18c8}, !- Group Rendering Name
  2.4384;                                 !- Nominal Floor to Ceiling Height {m}

OS:Rendering:Color,
  {0b30b4cc-e71b-4f4e-af8e-7bf25e2a18c8}, !- Handle
  Rendering Color 1,                      !- Name
  51,                                     !- Rendering Red Value
  34,                                     !- Rendering Green Value
  136,                                    !- Rendering Blue Value
  255;                                    !- Rendering Alpha Value

OS:Surface,
  {401c4da6-3699-4988-be29-2358be3ef179}, !- Handle
  Face 3,                                 !- Name
  Wall,                                   !- Surface Type
  ,                                       !- Construction Name
  {dcf25a4a-7645-4356-bd56-87d131a8c802}, !- Space Name
  Outdoors,                               !- Outside Boundary Condition
  ,                                       !- Outside Boundary Condition Object
  SunExposed,                             !- Sun Exposure
  WindExposed,                            !- Wind Exposure
  ,                                       !- View Factor to Ground
  ,                                       !- Number of Vertices
  5, -15, 2.4384,                         !- X,Y,Z Vertex 1 {m}
  -15, -15, 2.4384,                       !- X,Y,Z Vertex 2 {m}
  -15, -15, 0,                            !- X,Y,Z Vertex 3 {m}
  5, -15, 0;                              !- X,Y,Z Vertex 4 {m}

OS:Surface,
  {0a921a93-ad73-408f-93d5-e6adaa7c84dc}, !- Handle
  Face 1,                                 !- Name
  RoofCeiling,                            !- Surface Type
  ,                                       !- Construction Name
  {dcf25a4a-7645-4356-bd56-87d131a8c802}, !- Space Name
  Outdoors,                               !- Outside Boundary Condition
  ,                                       !- Outside Boundary Condition Object
  SunExposed,                             !- Sun Exposure
  WindExposed,                            !- Wind Exposure
  ,                                       !- View Factor to Ground
  ,                                       !- Number of Vertices
  -15, -5, 2.4384,                        !- X,Y,Z Vertex 1 {m}
  -15, -15, 2.4384,                       !- X,Y,Z Vertex 2 {m}
  5, -15, 2.4384,                         !- X,Y,Z Vertex 3 {m}
  5, -5, 2.4384;                          !- X,Y,Z Vertex 4 {m}

OS:Surface,
  {753e0ff8-6bd3-454c-b3ab-31322dc52c07}, !- Handle
  Face 0,                                 !- Name
  Floor,                                  !- Surface Type
  ,                                       !- Construction Name
  {dcf25a4a-7645-4356-bd56-87d131a8c802}, !- Space Name
  Ground,                                 !- Outside Boundary Condition
  ,                                       !- Outside Boundary Condition Object
  NoSun,                                  !- Sun Exposure
  NoWind,                                 !- Wind Exposure
  ,                                       !- View Factor to Ground
  ,                                       !- Number of Vertices
  5, -5, 0,                               !- X,Y,Z Vertex 1 {m}
  5, -15, 0,                              !- X,Y,Z Vertex 2 {m}
  -15, -15, 0,                            !- X,Y,Z Vertex 3 {m}
  -15, -5, 0;                             !- X,Y,Z Vertex 4 {m}

OS:Surface,
  {33e3f581-9988-4382-ab0e-d30ecbbd6010}, !- Handle
  Face 2,                                 !- Name
  Wall,                                   !- Surface Type
  ,                                       !- Construction Name
  {dcf25a4a-7645-4356-bd56-87d131a8c802}, !- Space Name
  Outdoors,                               !- Outside Boundary Condition
  ,                                       !- Outside Boundary Condition Object
  SunExposed,                             !- Sun Exposure
  WindExposed,                            !- Wind Exposure
  ,                                       !- View Factor to Ground
  ,                                       !- Number of Vertices
  5, -5, 2.4384,                          !- X,Y,Z Vertex 1 {m}
  5, -15, 2.4384,                         !- X,Y,Z Vertex 2 {m}
  5, -15, 0,                              !- X,Y,Z Vertex 3 {m}
  5, -5, 0;                               !- X,Y,Z Vertex 4 {m}

OS:Surface,
  {e317d3b1-3dee-4b16-8f02-b889b9655678}, !- Handle
  Face 4,                                 !- Name
  Wall,                                   !- Surface Type
  ,                                       !- Construction Name
  {dcf25a4a-7645-4356-bd56-87d131a8c802}, !- Space Name
  Outdoors,                               !- Outside Boundary Condition
  ,                                       !- Outside Boundary Condition Object
  SunExposed,                             !- Sun Exposure
  WindExposed,                            !- Wind Exposure
  ,                                       !- View Factor to Ground
  ,                                       !- Number of Vertices
  -15, -15, 2.4384,                       !- X,Y,Z Vertex 1 {m}
  -15, -5, 2.4384,                        !- X,Y,Z Vertex 2 {m}
  -15, -5, 0,                             !- X,Y,Z Vertex 3 {m}
  -15, -15, 0;                            !- X,Y,Z Vertex 4 {m}

OS:Surface,
  {f20dd215-8a71-4ce6-a05f-29433212c76a}, !- Handle
  Face 5,                                 !- Name
  Wall,                                   !- Surface Type
  ,                                       !- Construction Name
  {dcf25a4a-7645-4356-bd56-87d131a8c802}, !- Space Name
  Outdoors,                               !- Outside Boundary Condition
  ,                                       !- Outside Boundary Condition Object
  SunExposed,                             !- Sun Exposure
  WindExposed,                            !- Wind Exposure
  ,                                       !- View Factor to Ground
  ,                                       !- Number of Vertices
  -15, -5, 2.4384,                        !- X,Y,Z Vertex 1 {m}
  5, -5, 2.4384,                          !- X,Y,Z Vertex 2 {m}
  5, -5, 0,                               !- X,Y,Z Vertex 3 {m}
  -15, -5, 0;                             !- X,Y,Z Vertex 4 {m}

OS:Rendering:Color,
  {7d86df20-3c29-4f9d-96ed-1d9ce65a7646}, !- Handle
  Rendering Color 2,                      !- Name
  250,                                    !- Rendering Red Value
  215,                                    !- Rendering Green Value
  235;                                    !- Rendering Blue Value

OS:Rendering:Color,
  {90bf5dac-fc77-4499-8b0d-795fde915a32}, !- Handle
  Rendering Color 3,                      !- Name
  245,                                    !- Rendering Red Value
  220,                                    !- Rendering Green Value
  245;                                    !- Rendering Blue Value

OS:ThermalZone,
  {d11d3c75-8a86-491f-9cf4-1c805a492c5e}, !- Handle
  Thermal Zone 1,                         !- Name
  ,                                       !- Multiplier
  ,                                       !- Ceiling Height {m}
  ,                                       !- Volume {m3}
  ,                                       !- Floor Area {m2}
  ,                                       !- Zone Inside Convection Algorithm
  ,                                       !- Zone Outside Convection Algorithm
  ,                                       !- Zone Conditioning Equipment List Name
  {4c0f18b6-7a01-4c24-9d98-a5bbb633cd29}, !- Zone Air Inlet Port List
  {790681b6-5185-4929-8d0f-59e1e3c26c00}, !- Zone Air Exhaust Port List
  {4c73a62b-ca87-42c6-b216-717b299e2360}, !- Zone Air Node Name
  {4abf3ac8-a175-4bbb-af9c-49480128ab84}, !- Zone Return Air Port List
  ,                                       !- Primary Daylighting Control Name
  ,                                       !- Fraction of Zone Controlled by Primary Daylighting Control
  ,                                       !- Secondary Daylighting Control Name
  ,                                       !- Fraction of Zone Controlled by Secondary Daylighting Control
  ,                                       !- Illuminance Map Name
  {5d16b9a3-d192-4905-a366-50a6953e52ac}, !- Group Rendering Name
  ,                                       !- Thermostat Name
  No;                                     !- Use Ideal Air Loads

OS:Node,
  {f0935cf3-c9f9-4a6f-8b2b-61e66ef5608b}, !- Handle
  Node 1,                                 !- Name
  {4c73a62b-ca87-42c6-b216-717b299e2360}, !- Inlet Port
  ;                                       !- Outlet Port

OS:Connection,
  {4c73a62b-ca87-42c6-b216-717b299e2360}, !- Handle
  {d11d3c75-8a86-491f-9cf4-1c805a492c5e}, !- Source Object
  11,                                     !- Outlet Port
  {f0935cf3-c9f9-4a6f-8b2b-61e66ef5608b}, !- Target Object
  2;                                      !- Inlet Port

OS:PortList,
  {4c0f18b6-7a01-4c24-9d98-a5bbb633cd29}, !- Handle
  {d11d3c75-8a86-491f-9cf4-1c805a492c5e}, !- HVAC Component
  {0a09f70b-a8fb-4b11-b425-cb0d7b75b9e8}; !- Port 1

OS:PortList,
  {790681b6-5185-4929-8d0f-59e1e3c26c00}, !- Handle
  {d11d3c75-8a86-491f-9cf4-1c805a492c5e}, !- HVAC Component
  {8d436a98-c57c-48bf-88d0-29d66939e345}; !- Port 1

OS:PortList,
  {4abf3ac8-a175-4bbb-af9c-49480128ab84}, !- Handle
  {d11d3c75-8a86-491f-9cf4-1c805a492c5e}; !- HVAC Component

OS:Sizing:Zone,
  {13c7245b-8542-4a7e-a5da-044b4c613a78}, !- Handle
  {d11d3c75-8a86-491f-9cf4-1c805a492c5e}, !- Zone or ZoneList Name
  SupplyAirTemperature,                   !- Zone Cooling Design Supply Air Temperature Input Method
  14,                                     !- Zone Cooling Design Supply Air Temperature {C}
  11.11,                                  !- Zone Cooling Design Supply Air Temperature Difference {deltaC}
  SupplyAirTemperature,                   !- Zone Heating Design Supply Air Temperature Input Method
  40,                                     !- Zone Heating Design Supply Air Temperature {C}
  11.11,                                  !- Zone Heating Design Supply Air Temperature Difference {deltaC}
  0.0085,                                 !- Zone Cooling Design Supply Air Humidity Ratio {kg-H2O/kg-air}
  0.008,                                  !- Zone Heating Design Supply Air Humidity Ratio {kg-H2O/kg-air}
  ,                                       !- Zone Heating Sizing Factor
  ,                                       !- Zone Cooling Sizing Factor
  DesignDay,                              !- Cooling Design Air Flow Method
  ,                                       !- Cooling Design Air Flow Rate {m3/s}
  ,                                       !- Cooling Minimum Air Flow per Zone Floor Area {m3/s-m2}
  ,                                       !- Cooling Minimum Air Flow {m3/s}
  ,                                       !- Cooling Minimum Air Flow Fraction
  DesignDay,                              !- Heating Design Air Flow Method
  ,                                       !- Heating Design Air Flow Rate {m3/s}
  ,                                       !- Heating Maximum Air Flow per Zone Floor Area {m3/s-m2}
  ,                                       !- Heating Maximum Air Flow {m3/s}
  ,                                       !- Heating Maximum Air Flow Fraction
  No,                                     !- Account for Dedicated Outdoor Air System
  NeutralSupplyAir,                       !- Dedicated Outdoor Air System Control Strategy
  autosize,                               !- Dedicated Outdoor Air Low Setpoint Temperature for Design {C}
  autosize,                               !- Dedicated Outdoor Air High Setpoint Temperature for Design {C}
  Sensible Load Only No Latent Load,      !- Zone Load Sizing Method
  HumidityRatioDifference,                !- Zone Latent Cooling Design Supply Air Humidity Ratio Input Method
  ,                                       !- Zone Dehumidification Design Supply Air Humidity Ratio {kgWater/kgDryAir}
  0.005,                                  !- Zone Cooling Design Supply Air Humidity Ratio Difference {kgWater/kgDryAir}
  HumidityRatioDifference,                !- Zone Latent Heating Design Supply Air Humidity Ratio Input Method
  ,                                       !- Zone Humidification Design Supply Air Humidity Ratio {kgWater/kgDryAir}
  0.005;                                  !- Zone Humidification Design Supply Air Humidity Ratio Difference {kgWater/kgDryAir}

OS:ZoneHVAC:EquipmentList,
  {1f43264e-1e6c-44c3-a164-ff8bd10d13fe}, !- Handle
  Zone HVAC Equipment List 1,             !- Name
  {d11d3c75-8a86-491f-9cf4-1c805a492c5e}, !- Thermal Zone
  ,                                       !- Load Distribution Scheme
  {a94644a5-bde5-41eb-8d72-5e62c793653d}, !- Zone Equipment 1
  1,                                      !- Zone Equipment Cooling Sequence 1
  1,                                      !- Zone Equipment Heating or No-Load Sequence 1
  ,                                       !- Zone Equipment Sequential Cooling Fraction Schedule Name 1
  ;                                       !- Zone Equipment Sequential Heating Fraction Schedule Name 1

OS:Rendering:Color,
  {5d16b9a3-d192-4905-a366-50a6953e52ac}, !- Handle
  Rendering Color 4,                      !- Name
  248,                                    !- Rendering Red Value
  255,                                    !- Rendering Green Value
  248;                                    !- Rendering Blue Value

OS:ZoneHVAC:UnitHeater,
  {a94644a5-bde5-41eb-8d72-5e62c793653d}, !- Handle
  CV Unit Heater Elec,                    !- Name
  {56181479-132b-4179-bf99-ebf5d83581e3}, !- Availability Schedule Name
  {9f6ff055-1ff8-4a05-8131-72dbe8b68fed}, !- Air Inlet Node Name
  {b10d79d7-07b5-45a9-8982-4e17f27023ad}, !- Air Outlet Node Name
  {f6ed200e-ce0a-4b68-9b26-c651aed7930d}, !- Supply Air Fan Name
  AutoSize,                               !- Maximum Supply Air Flow Rate {m3/s}
  OnOff,                                  !- Fan Control Type
  {e2d26ff6-24dd-42fe-b06b-fc44ea062df0}, !- Heating Coil Name
  AutoSize,                               !- Maximum Hot Water Flow Rate {m3/s}
  0.0,                                    !- Minimum Hot Water Flow Rate {m3/s}
  0.001,                                  !- Heating Convergence Tolerance
  ;                                       !- Availability Manager List Name

! Always On Discrete
OS:Schedule:Constant,
  {56181479-132b-4179-bf99-ebf5d83581e3}, !- Handle
  Always On Discrete hvac_library,        !- Name
  {0ed89679-a488-49b0-ad7d-277de5f5caf6}, !- Schedule Type Limits Name
  1;                                      !- Value

! Always OnOff Discrete Schedule Type Limits
OS:ScheduleTypeLimits,
  {0ed89679-a488-49b0-ad7d-277de5f5caf6}, !- Handle
  OnOff hvac_library,                     !- Name
  0,                                      !- Lower Limit Value
  1,                                      !- Upper Limit Value
  Discrete,                               !- Numeric Type
  Availability;                           !- Unit Type

OS:Fan:ConstantVolume,
  {f6ed200e-ce0a-4b68-9b26-c651aed7930d}, !- Handle
  CV Unit Heater Fan,                     !- Name
  {56181479-132b-4179-bf99-ebf5d83581e3}, !- Availability Schedule Name
  ,                                       !- Fan Total Efficiency
  ,                                       !- Pressure Rise {Pa}
  AutoSize,                               !- Maximum Flow Rate {m3/s}
  ,                                       !- Motor Efficiency
  ,                                       !- Motor In Airstream Fraction
  ,                                       !- Air Inlet Node Name
  ,                                       !- Air Outlet Node Name
  ;                                       !- End-Use Subcategory

OS:Coil:Heating:Electric,
  {e2d26ff6-24dd-42fe-b06b-fc44ea062df0}, !- Handle
  Unit Heater Elec Htg Coil,              !- Name
  {56181479-132b-4179-bf99-ebf5d83581e3}, !- Availability Schedule Name
  ,                                       !- Efficiency
  ,                                       !- Nominal Capacity {W}
  ,                                       !- Air Inlet Node Name
  ;                                       !- Air Outlet Node Name

OS:Node,
  {01c303d3-567f-4a0e-bd00-39b2d7fe7ecc}, !- Handle
  Node 2,                                 !- Name
  {8d436a98-c57c-48bf-88d0-29d66939e345}, !- Inlet Port
  {9f6ff055-1ff8-4a05-8131-72dbe8b68fed}; !- Outlet Port

OS:Connection,
  {8d436a98-c57c-48bf-88d0-29d66939e345}, !- Handle
  {790681b6-5185-4929-8d0f-59e1e3c26c00}, !- Source Object
  2,                                      !- Outlet Port
  {01c303d3-567f-4a0e-bd00-39b2d7fe7ecc}, !- Target Object
  2;                                      !- Inlet Port

OS:Connection,
  {9f6ff055-1ff8-4a05-8131-72dbe8b68fed}, !- Handle
  {01c303d3-567f-4a0e-bd00-39b2d7fe7ecc}, !- Source Object
  3,                                      !- Outlet Port
  {a94644a5-bde5-41eb-8d72-5e62c793653d}, !- Target Object
  3;                                      !- Inlet Port

OS:Node,
  {1d16264f-f17d-43c8-8626-46d0d25d2298}, !- Handle
  Node 3,                                 !- Name
  {b10d79d7-07b5-45a9-8982-4e17f27023ad}, !- Inlet Port
  {0a09f70b-a8fb-4b11-b425-cb0d7b75b9e8}; !- Outlet Port

OS:Connection,
  {0a09f70b-a8fb-4b11-b425-cb0d7b75b9e8}, !- Handle
  {1d16264f-f17d-43c8-8626-46d0d25d2298}, !- Source Object
  3,                                      !- Outlet Port
  {4c0f18b6-7a01-4c24-9d98-a5bbb633cd29}, !- Target Object
  2;                                      !- Inlet Port

OS:Connection,
  {b10d79d7-07b5-45a9-8982-4e17f27023ad}, !- Handle
  {a94644a5-bde5-41eb-8d72-5e62c793653d}, !- Source Object
  4,                                      !- Outlet Port
  {1d16264f-f17d-43c8-8626-46d0d25d2298}, !- Target Object
  2;                                      !- Inlet Port

