
OS:Version,
  {61a186e1-8441-4e76-90a4-98ade7f8edb5}, !- Handle
  3.5.1,                                  !- Version Identifier
  alpha;                                  !- Prerelease Identifier

OS:Building,
  {afc907e2-ee97-4529-a3b9-bb7c104d7688}, !- Handle
  Building 1,                             !- Name
  ,                                       !- Building Sector Type
  0,                                      !- North Axis {deg}
  ,                                       !- Nominal Floor to Floor Height {m}
  ,                                       !- Space Type Name
  {3b6b978c-2d81-460f-9878-45bf891ddf46}, !- Default Construction Set Name
  ,                                       !- Default Schedule Set Name
  ,                                       !- Standards Number of Stories
  ,                                       !- Standards Number of Above Ground Stories
  ,                                       !- Standards Template
  MediumOffice;                           !- Standards Building Type

OS:Facility,
  {ff1ce058-f46e-4f8d-972b-8271cb8dbc3a}; !- Handle

OS:Site,
  {b7ad71db-6235-4173-871e-ba46539bfd88}, !- Handle
  Site 1,                                 !- Name
  ,                                       !- Latitude {deg}
  ,                                       !- Longitude {deg}
  ,                                       !- Time Zone {hr}
  ,                                       !- Elevation {m}
  City;                                   !- Terrain

OS:SimulationControl,
  {d11d457a-9161-42ce-a612-e6ae94e07829}, !- Handle
  Yes,                                    !- Do Zone Sizing Calculation
  Yes,                                    !- Do System Sizing Calculation
  Yes,                                    !- Do Plant Sizing Calculation
  No,                                     !- Run Simulation for Sizing Periods
  Yes,                                    !- Run Simulation for Weather File Run Periods
  ,                                       !- Loads Convergence Tolerance Value {W}
  ,                                       !- Temperature Convergence Tolerance Value {deltaC}
  FullExteriorWithReflections;            !- Solar Distribution

OS:Sizing:Parameters,
  {5077b60b-c633-4cdd-9c61-f40a2f317c94}, !- Handle
  1.25,                                   !- Heating Sizing Factor
  1.15;                                   !- Cooling Sizing Factor

OS:Timestep,
  {a0b32d97-b084-4a91-9175-3d319d4343cc}, !- Handle
  6;                                      !- Number of Timesteps per Hour

OS:ShadowCalculation,
  {a0cb0f60-6a6d-46c9-9586-cc55b383202a}, !- Handle
  PolygonClipping,                        !- Shading Calculation Method
  Periodic,                               !- Shading Calculation Update Frequency Method
  30,                                     !- Shading Calculation Update Frequency
  15000,                                  !- Maximum Figures in Shadow Overlap Calculations
  ,                                       !- Polygon Clipping Algorithm
  512,                                    !- Pixel Counting Resolution
  ,                                       !- Sky Diffuse Modeling Algorithm
  No,                                     !- Output External Shading Calculation Results
  No,                                     !- Disable Self-Shading Within Shading Zone Groups
  No;                                     !- Disable Self-Shading From Shading Zone Groups to Other Zones

OS:HeatBalanceAlgorithm,
  {37d353ca-8146-4923-b2ad-65c533c981b7}, !- Handle
  ConductionTransferFunction,             !- Algorithm
  200;                                    !- Surface Temperature Upper Limit {C}

OS:RunPeriod,
  {9292871d-908b-4fcf-8b33-ee2d7311fe52}, !- Handle
  Run Period 1,                           !- Name
  1,                                      !- Begin Month
  1,                                      !- Begin Day of Month
  12,                                     !- End Month
  31,                                     !- End Day of Month
  ,                                       !- Use Weather File Holidays and Special Days
  ,                                       !- Use Weather File Daylight Saving Period
  ,                                       !- Apply Weekend Holiday Rule
  ,                                       !- Use Weather File Rain Indicators
  ,                                       !- Use Weather File Snow Indicators
  ;                                       !- Number of Times Runperiod to be Repeated

OS:LifeCycleCost:Parameters,
  {4eed04dc-6877-4bfe-a5e9-9da8b973d964}, !- Handle
  ,                                       !- Analysis Type
  ,                                       !- Discounting Convention
  ,                                       !- Inflation Approach
  ,                                       !- Real Discount Rate
  ,                                       !- Nominal Discount Rate
  ,                                       !- Inflation
  ,                                       !- Base Date Month
  ,                                       !- Base Date Year
  ,                                       !- Service Date Month
  ,                                       !- Service Date Year
  ;                                       !- Length of Study Period in Years

OS:WeatherFile,
  {8722bd08-0717-4958-ad06-45526b0bf994}, !- Handle
  Shanghai Hongqiao Intl AP,              !- City
  SH,                                     !- State Province Region
  CHN,                                    !- Country
  ISD-TMYx,                               !- Data Source
  583670,                                 !- WMO Number
  31.198,                                 !- Latitude {deg}
  121.336,                                !- Longitude {deg}
  8,                                      !- Time Zone {hr}
  3,                                      !- Elevation {m}
  C:/Program Files/ladybug_tools/resources/weather/CHN_SH_Shanghai-Hongqiao.Intl.AP.583670_TMYx.2004-2018/CHN_SH_Shanghai-Hongqiao.Intl.AP.583670_TMYx.2004-2018.epw, !- Url
  7FCE1ECB,                               !- Checksum
  ,                                       !- Start Date Actual Year
  Sunday;                                 !- Start Day of Week

OS:SizingPeriod:DesignDay,
  {adfdef14-248e-4940-a196-a77bca7d065f}, !- Handle
  Shanghai Hongqiao Intl AP Ann Htg 99.6% Condns DB, !- Name
  -2.9,                                   !- Maximum Dry-Bulb Temperature {C}
  0,                                      !- Daily Dry-Bulb Temperature Range {deltaC}
  101289,                                 !- Barometric Pressure {Pa}
  2.4,                                    !- Wind Speed {m/s}
  330,                                    !- Wind Direction {deg}
  0,                                      !- Sky Clearness
  ,                                       !- Rain Indicator
  ,                                       !- Snow Indicator
  21,                                     !- Day of Month
  1,                                      !- Month
  WinterDesignDay,                        !- Day Type
  ,                                       !- Daylight Saving Time Indicator
  Wetbulb,                                !- Humidity Condition Type
  ,                                       !- Humidity Condition Day Schedule Name
  -2.9,                                   !- Wetbulb or DewPoint at Maximum Dry-Bulb {C}
  ,                                       !- Humidity Ratio at Maximum Dry-Bulb {kgWater/kgDryAir}
  ,                                       !- Enthalpy at Maximum Dry-Bulb {J/kg}
  ,                                       !- Dry-Bulb Temperature Range Modifier Type
  ,                                       !- Dry-Bulb Temperature Range Modifier Day Schedule Name
  ASHRAEClearSky;                         !- Solar Model Indicator

OS:SizingPeriod:DesignDay,
  {99624692-7048-471b-91d7-2a986e9a27d2}, !- Handle
  Shanghai Hongqiao Intl AP Ann Hum_n 99.6% Condns DP=>MCDB, !- Name
  2.5,                                    !- Maximum Dry-Bulb Temperature {C}
  0,                                      !- Daily Dry-Bulb Temperature Range {deltaC}
  101289,                                 !- Barometric Pressure {Pa}
  2.4,                                    !- Wind Speed {m/s}
  330,                                    !- Wind Direction {deg}
  0,                                      !- Sky Clearness
  ,                                       !- Rain Indicator
  ,                                       !- Snow Indicator
  21,                                     !- Day of Month
  1,                                      !- Month
  WinterDesignDay,                        !- Day Type
  ,                                       !- Daylight Saving Time Indicator
  Dewpoint,                               !- Humidity Condition Type
  ,                                       !- Humidity Condition Day Schedule Name
  -12.1,                                  !- Wetbulb or DewPoint at Maximum Dry-Bulb {C}
  ,                                       !- Humidity Ratio at Maximum Dry-Bulb {kgWater/kgDryAir}
  ,                                       !- Enthalpy at Maximum Dry-Bulb {J/kg}
  ,                                       !- Dry-Bulb Temperature Range Modifier Type
  ,                                       !- Dry-Bulb Temperature Range Modifier Day Schedule Name
  ASHRAEClearSky;                         !- Solar Model Indicator

OS:SizingPeriod:DesignDay,
  {1e6171bb-c3fc-403d-ba7d-0b8952f0c81e}, !- Handle
  Shanghai Hongqiao Intl AP Ann Htg Wind 99.6% Condns WS=>MCDB, !- Name
  3.2,                                    !- Maximum Dry-Bulb Temperature {C}
  0,                                      !- Daily Dry-Bulb Temperature Range {deltaC}
  101289,                                 !- Barometric Pressure {Pa}
  10,                                     !- Wind Speed {m/s}
  330,                                    !- Wind Direction {deg}
  0,                                      !- Sky Clearness
  ,                                       !- Rain Indicator
  ,                                       !- Snow Indicator
  21,                                     !- Day of Month
  1,                                      !- Month
  WinterDesignDay,                        !- Day Type
  ,                                       !- Daylight Saving Time Indicator
  Wetbulb,                                !- Humidity Condition Type
  ,                                       !- Humidity Condition Day Schedule Name
  3.2,                                    !- Wetbulb or DewPoint at Maximum Dry-Bulb {C}
  ,                                       !- Humidity Ratio at Maximum Dry-Bulb {kgWater/kgDryAir}
  ,                                       !- Enthalpy at Maximum Dry-Bulb {J/kg}
  ,                                       !- Dry-Bulb Temperature Range Modifier Type
  ,                                       !- Dry-Bulb Temperature Range Modifier Day Schedule Name
  ASHRAEClearSky;                         !- Solar Model Indicator

OS:SizingPeriod:DesignDay,
  {5948fbd3-46bc-4369-8a79-b220827f1384}, !- Handle
  Shanghai Hongqiao Intl AP Ann Clg .4% Condns DB=>MWB, !- Name
  35.9,                                   !- Maximum Dry-Bulb Temperature {C}
  6.9,                                    !- Daily Dry-Bulb Temperature Range {deltaC}
  101289,                                 !- Barometric Pressure {Pa}
  3.8,                                    !- Wind Speed {m/s}
  240,                                    !- Wind Direction {deg}
  ,                                       !- Sky Clearness
  ,                                       !- Rain Indicator
  ,                                       !- Snow Indicator
  21,                                     !- Day of Month
  7,                                      !- Month
  SummerDesignDay,                        !- Day Type
  ,                                       !- Daylight Saving Time Indicator
  Wetbulb,                                !- Humidity Condition Type
  ,                                       !- Humidity Condition Day Schedule Name
  27.1,                                   !- Wetbulb or DewPoint at Maximum Dry-Bulb {C}
  ,                                       !- Humidity Ratio at Maximum Dry-Bulb {kgWater/kgDryAir}
  ,                                       !- Enthalpy at Maximum Dry-Bulb {J/kg}
  ,                                       !- Dry-Bulb Temperature Range Modifier Type
  ,                                       !- Dry-Bulb Temperature Range Modifier Day Schedule Name
  ASHRAETau,                              !- Solar Model Indicator
  ,                                       !- Beam Solar Day Schedule Name
  ,                                       !- Diffuse Solar Day Schedule Name
  0.685,                                  !- ASHRAE Clear Sky Optical Depth for Beam Irradiance {dimensionless}
  1.715;                                  !- ASHRAE Clear Sky Optical Depth for Diffuse Irradiance {dimensionless}

OS:SizingPeriod:DesignDay,
  {eac3403e-3074-48c0-aab0-bf4a70747ccf}, !- Handle
  Shanghai Hongqiao Intl AP Ann Clg .4% Condns WB=>MDB, !- Name
  32.7,                                   !- Maximum Dry-Bulb Temperature {C}
  6.9,                                    !- Daily Dry-Bulb Temperature Range {deltaC}
  101289,                                 !- Barometric Pressure {Pa}
  3.8,                                    !- Wind Speed {m/s}
  240,                                    !- Wind Direction {deg}
  ,                                       !- Sky Clearness
  ,                                       !- Rain Indicator
  ,                                       !- Snow Indicator
  21,                                     !- Day of Month
  7,                                      !- Month
  SummerDesignDay,                        !- Day Type
  ,                                       !- Daylight Saving Time Indicator
  Wetbulb,                                !- Humidity Condition Type
  ,                                       !- Humidity Condition Day Schedule Name
  28.7,                                   !- Wetbulb or DewPoint at Maximum Dry-Bulb {C}
  ,                                       !- Humidity Ratio at Maximum Dry-Bulb {kgWater/kgDryAir}
  ,                                       !- Enthalpy at Maximum Dry-Bulb {J/kg}
  ,                                       !- Dry-Bulb Temperature Range Modifier Type
  ,                                       !- Dry-Bulb Temperature Range Modifier Day Schedule Name
  ASHRAETau,                              !- Solar Model Indicator
  ,                                       !- Beam Solar Day Schedule Name
  ,                                       !- Diffuse Solar Day Schedule Name
  0.685,                                  !- ASHRAE Clear Sky Optical Depth for Beam Irradiance {dimensionless}
  1.715;                                  !- ASHRAE Clear Sky Optical Depth for Diffuse Irradiance {dimensionless}

OS:SizingPeriod:DesignDay,
  {83f7d225-3131-4471-a44e-27b3d1856a6a}, !- Handle
  Shanghai Hongqiao Intl AP Ann Clg .4% Condns DP=>MDB, !- Name
  31,                                     !- Maximum Dry-Bulb Temperature {C}
  6.9,                                    !- Daily Dry-Bulb Temperature Range {deltaC}
  101289,                                 !- Barometric Pressure {Pa}
  3.8,                                    !- Wind Speed {m/s}
  240,                                    !- Wind Direction {deg}
  ,                                       !- Sky Clearness
  ,                                       !- Rain Indicator
  ,                                       !- Snow Indicator
  21,                                     !- Day of Month
  7,                                      !- Month
  SummerDesignDay,                        !- Day Type
  ,                                       !- Daylight Saving Time Indicator
  Dewpoint,                               !- Humidity Condition Type
  ,                                       !- Humidity Condition Day Schedule Name
  27.9,                                   !- Wetbulb or DewPoint at Maximum Dry-Bulb {C}
  ,                                       !- Humidity Ratio at Maximum Dry-Bulb {kgWater/kgDryAir}
  ,                                       !- Enthalpy at Maximum Dry-Bulb {J/kg}
  ,                                       !- Dry-Bulb Temperature Range Modifier Type
  ,                                       !- Dry-Bulb Temperature Range Modifier Day Schedule Name
  ASHRAETau,                              !- Solar Model Indicator
  ,                                       !- Beam Solar Day Schedule Name
  ,                                       !- Diffuse Solar Day Schedule Name
  0.685,                                  !- ASHRAE Clear Sky Optical Depth for Beam Irradiance {dimensionless}
  1.715;                                  !- ASHRAE Clear Sky Optical Depth for Diffuse Irradiance {dimensionless}

OS:SizingPeriod:DesignDay,
  {c777b163-b875-40c7-8af8-4042cff193ec}, !- Handle
  Shanghai Hongqiao Intl AP Ann Clg .4% Condns Enth=>MDB, !- Name
  32.4,                                   !- Maximum Dry-Bulb Temperature {C}
  6.9,                                    !- Daily Dry-Bulb Temperature Range {deltaC}
  101289,                                 !- Barometric Pressure {Pa}
  3.8,                                    !- Wind Speed {m/s}
  240,                                    !- Wind Direction {deg}
  ,                                       !- Sky Clearness
  ,                                       !- Rain Indicator
  ,                                       !- Snow Indicator
  21,                                     !- Day of Month
  7,                                      !- Month
  SummerDesignDay,                        !- Day Type
  ,                                       !- Daylight Saving Time Indicator
  Enthalpy,                               !- Humidity Condition Type
  ,                                       !- Humidity Condition Day Schedule Name
  23,                                     !- Wetbulb or DewPoint at Maximum Dry-Bulb {C}
  ,                                       !- Humidity Ratio at Maximum Dry-Bulb {kgWater/kgDryAir}
  92800,                                  !- Enthalpy at Maximum Dry-Bulb {J/kg}
  ,                                       !- Dry-Bulb Temperature Range Modifier Type
  ,                                       !- Dry-Bulb Temperature Range Modifier Day Schedule Name
  ASHRAETau,                              !- Solar Model Indicator
  ,                                       !- Beam Solar Day Schedule Name
  ,                                       !- Diffuse Solar Day Schedule Name
  0.685,                                  !- ASHRAE Clear Sky Optical Depth for Beam Irradiance {dimensionless}
  1.715;                                  !- ASHRAE Clear Sky Optical Depth for Diffuse Irradiance {dimensionless}

OS:SizingPeriod:DesignDay,
  {cbb2b6be-4163-4158-ab3f-0e320bf9253a}, !- Handle
  Shanghai Hongqiao Intl AP January .4% Condns DB=>MCWB, !- Name
  17.2,                                   !- Maximum Dry-Bulb Temperature {C}
  6.7,                                    !- Daily Dry-Bulb Temperature Range {deltaC}
  101289,                                 !- Barometric Pressure {Pa}
  3.5,                                    !- Wind Speed {m/s}
  240,                                    !- Wind Direction {deg}
  ,                                       !- Sky Clearness
  ,                                       !- Rain Indicator
  ,                                       !- Snow Indicator
  21,                                     !- Day of Month
  1,                                      !- Month
  SummerDesignDay,                        !- Day Type
  ,                                       !- Daylight Saving Time Indicator
  Wetbulb,                                !- Humidity Condition Type
  ,                                       !- Humidity Condition Day Schedule Name
  13,                                     !- Wetbulb or DewPoint at Maximum Dry-Bulb {C}
  ,                                       !- Humidity Ratio at Maximum Dry-Bulb {kgWater/kgDryAir}
  ,                                       !- Enthalpy at Maximum Dry-Bulb {J/kg}
  ,                                       !- Dry-Bulb Temperature Range Modifier Type
  ,                                       !- Dry-Bulb Temperature Range Modifier Day Schedule Name
  ASHRAETau,                              !- Solar Model Indicator
  ,                                       !- Beam Solar Day Schedule Name
  ,                                       !- Diffuse Solar Day Schedule Name
  0.598,                                  !- ASHRAE Clear Sky Optical Depth for Beam Irradiance {dimensionless}
  1.664;                                  !- ASHRAE Clear Sky Optical Depth for Diffuse Irradiance {dimensionless}

OS:SizingPeriod:DesignDay,
  {3f81a692-08ca-4a49-8d4c-66e2c330cab8}, !- Handle
  Shanghai Hongqiao Intl AP February .4% Condns DB=>MCWB, !- Name
  22,                                     !- Maximum Dry-Bulb Temperature {C}
  6.8,                                    !- Daily Dry-Bulb Temperature Range {deltaC}
  101289,                                 !- Barometric Pressure {Pa}
  3.7,                                    !- Wind Speed {m/s}
  240,                                    !- Wind Direction {deg}
  ,                                       !- Sky Clearness
  ,                                       !- Rain Indicator
  ,                                       !- Snow Indicator
  21,                                     !- Day of Month
  2,                                      !- Month
  SummerDesignDay,                        !- Day Type
  ,                                       !- Daylight Saving Time Indicator
  Wetbulb,                                !- Humidity Condition Type
  ,                                       !- Humidity Condition Day Schedule Name
  15.2,                                   !- Wetbulb or DewPoint at Maximum Dry-Bulb {C}
  ,                                       !- Humidity Ratio at Maximum Dry-Bulb {kgWater/kgDryAir}
  ,                                       !- Enthalpy at Maximum Dry-Bulb {J/kg}
  ,                                       !- Dry-Bulb Temperature Range Modifier Type
  ,                                       !- Dry-Bulb Temperature Range Modifier Day Schedule Name
  ASHRAETau,                              !- Solar Model Indicator
  ,                                       !- Beam Solar Day Schedule Name
  ,                                       !- Diffuse Solar Day Schedule Name
  0.638,                                  !- ASHRAE Clear Sky Optical Depth for Beam Irradiance {dimensionless}
  1.611;                                  !- ASHRAE Clear Sky Optical Depth for Diffuse Irradiance {dimensionless}

OS:SizingPeriod:DesignDay,
  {634f65e1-6297-422a-9705-f1c49a769cf2}, !- Handle
  Shanghai Hongqiao Intl AP March .4% Condns DB=>MCWB, !- Name
  24.8,                                   !- Maximum Dry-Bulb Temperature {C}
  7.6,                                    !- Daily Dry-Bulb Temperature Range {deltaC}
  101289,                                 !- Barometric Pressure {Pa}
  4,                                      !- Wind Speed {m/s}
  240,                                    !- Wind Direction {deg}
  ,                                       !- Sky Clearness
  ,                                       !- Rain Indicator
  ,                                       !- Snow Indicator
  21,                                     !- Day of Month
  3,                                      !- Month
  SummerDesignDay,                        !- Day Type
  ,                                       !- Daylight Saving Time Indicator
  Wetbulb,                                !- Humidity Condition Type
  ,                                       !- Humidity Condition Day Schedule Name
  16.1,                                   !- Wetbulb or DewPoint at Maximum Dry-Bulb {C}
  ,                                       !- Humidity Ratio at Maximum Dry-Bulb {kgWater/kgDryAir}
  ,                                       !- Enthalpy at Maximum Dry-Bulb {J/kg}
  ,                                       !- Dry-Bulb Temperature Range Modifier Type
  ,                                       !- Dry-Bulb Temperature Range Modifier Day Schedule Name
  ASHRAETau,                              !- Solar Model Indicator
  ,                                       !- Beam Solar Day Schedule Name
  ,                                       !- Diffuse Solar Day Schedule Name
  0.671,                                  !- ASHRAE Clear Sky Optical Depth for Beam Irradiance {dimensionless}
  1.574;                                  !- ASHRAE Clear Sky Optical Depth for Diffuse Irradiance {dimensionless}

OS:SizingPeriod:DesignDay,
  {98d2845e-dcdd-46a4-b924-8537e0c0386c}, !- Handle
  Shanghai Hongqiao Intl AP April .4% Condns DB=>MCWB, !- Name
  29.2,                                   !- Maximum Dry-Bulb Temperature {C}
  8.2,                                    !- Daily Dry-Bulb Temperature Range {deltaC}
  101289,                                 !- Barometric Pressure {Pa}
  3.9,                                    !- Wind Speed {m/s}
  240,                                    !- Wind Direction {deg}
  ,                                       !- Sky Clearness
  ,                                       !- Rain Indicator
  ,                                       !- Snow Indicator
  21,                                     !- Day of Month
  4,                                      !- Month
  SummerDesignDay,                        !- Day Type
  ,                                       !- Daylight Saving Time Indicator
  Wetbulb,                                !- Humidity Condition Type
  ,                                       !- Humidity Condition Day Schedule Name
  20.6,                                   !- Wetbulb or DewPoint at Maximum Dry-Bulb {C}
  ,                                       !- Humidity Ratio at Maximum Dry-Bulb {kgWater/kgDryAir}
  ,                                       !- Enthalpy at Maximum Dry-Bulb {J/kg}
  ,                                       !- Dry-Bulb Temperature Range Modifier Type
  ,                                       !- Dry-Bulb Temperature Range Modifier Day Schedule Name
  ASHRAETau,                              !- Solar Model Indicator
  ,                                       !- Beam Solar Day Schedule Name
  ,                                       !- Diffuse Solar Day Schedule Name
  0.679,                                  !- ASHRAE Clear Sky Optical Depth for Beam Irradiance {dimensionless}
  1.616;                                  !- ASHRAE Clear Sky Optical Depth for Diffuse Irradiance {dimensionless}

OS:SizingPeriod:DesignDay,
  {755253b9-d731-4413-89f1-b3f149966754}, !- Handle
  Shanghai Hongqiao Intl AP May .4% Condns DB=>MCWB, !- Name
  32.2,                                   !- Maximum Dry-Bulb Temperature {C}
  8,                                      !- Daily Dry-Bulb Temperature Range {deltaC}
  101289,                                 !- Barometric Pressure {Pa}
  3.8,                                    !- Wind Speed {m/s}
  240,                                    !- Wind Direction {deg}
  ,                                       !- Sky Clearness
  ,                                       !- Rain Indicator
  ,                                       !- Snow Indicator
  21,                                     !- Day of Month
  5,                                      !- Month
  SummerDesignDay,                        !- Day Type
  ,                                       !- Daylight Saving Time Indicator
  Wetbulb,                                !- Humidity Condition Type
  ,                                       !- Humidity Condition Day Schedule Name
  20.4,                                   !- Wetbulb or DewPoint at Maximum Dry-Bulb {C}
  ,                                       !- Humidity Ratio at Maximum Dry-Bulb {kgWater/kgDryAir}
  ,                                       !- Enthalpy at Maximum Dry-Bulb {J/kg}
  ,                                       !- Dry-Bulb Temperature Range Modifier Type
  ,                                       !- Dry-Bulb Temperature Range Modifier Day Schedule Name
  ASHRAETau,                              !- Solar Model Indicator
  ,                                       !- Beam Solar Day Schedule Name
  ,                                       !- Diffuse Solar Day Schedule Name
  0.663,                                  !- ASHRAE Clear Sky Optical Depth for Beam Irradiance {dimensionless}
  1.681;                                  !- ASHRAE Clear Sky Optical Depth for Diffuse Irradiance {dimensionless}

OS:SizingPeriod:DesignDay,
  {08895196-aaf0-4d40-8d1f-9058d6598ce6}, !- Handle
  Shanghai Hongqiao Intl AP June .4% Condns DB=>MCWB, !- Name
  35.2,                                   !- Maximum Dry-Bulb Temperature {C}
  6.6,                                    !- Daily Dry-Bulb Temperature Range {deltaC}
  101289,                                 !- Barometric Pressure {Pa}
  3.5,                                    !- Wind Speed {m/s}
  240,                                    !- Wind Direction {deg}
  ,                                       !- Sky Clearness
  ,                                       !- Rain Indicator
  ,                                       !- Snow Indicator
  21,                                     !- Day of Month
  6,                                      !- Month
  SummerDesignDay,                        !- Day Type
  ,                                       !- Daylight Saving Time Indicator
  Wetbulb,                                !- Humidity Condition Type
  ,                                       !- Humidity Condition Day Schedule Name
  26.9,                                   !- Wetbulb or DewPoint at Maximum Dry-Bulb {C}