
OS:Version,
  {c6953e7b-86d5-4e67-b947-3709cab26e83}, !- Handle
  3.1.0;                                  !- Version Identifier

OS:Schedule:Constant,
  {96a7a7fa-11c1-4b19-988b-d21e0b93d1b6}, !- Handle
  Always On Discrete,                     !- Name
  {cb638223-5f8d-4d2b-8cdb-be27e746136f}, !- Schedule Type Limits Name
  1;                                      !- Value

OS:ScheduleTypeLimits,
  {cb638223-5f8d-4d2b-8cdb-be27e746136f}, !- Handle
  Always On Discrete Limits,              !- Name
  0,                                      !- Lower Limit Value
  1,                                      !- Upper Limit Value
  Discrete,                               !- Numeric Type
  Availability;                           !- Unit Type

OS:RunPeriod,
  {b9c06ef6-3b8f-4446-a06e-1c8c5552a2f7}, !- Handle
  Run Period 1,                           !- Name
  1,                                      !- Begin Month
  1,                                      !- Begin Day of Month
  12,                                     !- End Month
  31,                                     !- End Day of Month
  ,                                       !- Use Weather File Holidays and Special Days
  ,                                       !- Use Weather File Daylight Saving Period
  ,                                       !- Apply Weekend Holiday Rule
  ,                                       !- Use Weather File Rain Indicators
  ,                                       !- Use Weather File Snow Indicators
  ;                                       !- Number of Times Runperiod to be Repeated

OS:Timestep,
  {2ed42ddf-7310-4508-aba8-c377f7436df0}, !- Handle
  6;                                      !- Number of Timesteps per Hour

OS:Building,
  {0d13cab7-366f-4f41-acab-f292b2cfaa8e}, !- Handle
  Building 1,                             !- Name
  ,                                       !- Building Sector Type
  0,                                      !- North Axis {deg}
  ,                                       !- Nominal Floor to Floor Height {m}
  ,                                       !- Space Type Name
  ,                                       !- Default Construction Set Name
  ;                                       !- Default Schedule Set Name

OS:Site,
  {13efa846-d7a4-4882-af9f-01d70e5ca195}, !- Handle
  New York Laguardia Arpt	USA,            !- Name
  40.78,                                  !- Latitude {deg}
  -73.88,                                 !- Longitude {deg}
  -5,                                     !- Time Zone {hr}
  3,                                      !- Elevation {m}
  City;                                   !- Terrain

OS:SimulationControl,
  {351628be-3c78-4ddb-9880-858dcc98e66b}, !- Handle
  Yes,                                    !- Do Zone Sizing Calculation
  Yes,                                    !- Do System Sizing Calculation
  Yes,                                    !- Do Plant Sizing Calculation
  No,                                     !- Run Simulation for Sizing Periods
  Yes,                                    !- Run Simulation for Weather File Run Periods
  ,                                       !- Loads Convergence Tolerance Value {W}
  ,                                       !- Temperature Convergence Tolerance Value {deltaC}
  FullInteriorAndExteriorWithReflections; !- Solar Distribution

OS:ShadowCalculation,
  {ab02183e-539c-48a9-bd19-2f37943515bb}, !- Handle
  PolygonClipping,                        !- Shading Calculation Method
  ,                                       !- Shading Calculation Update Frequency Method
  30,                                     !- Shading Calculation Update Frequency
  3000,                                   !- Maximum Figures in Shadow Overlap Calculations
  ,                                       !- Polygon Clipping Algorithm
  512,                                    !- Pixel Counting Resolution
  ,                                       !- Sky Diffuse Modeling Algorithm
  No,                                     !- Output External Shading Calculation Results
  No,                                     !- Disable Self-Shading Within Shading Zone Groups
  No;                                     !- Disable Self-Shading From Shading Zone Groups to Other Zones

OS:Sizing:Parameters,
  {e8544793-4019-45a6-a989-6bae3ca46226}, !- Handle
  1.25,                                   !- Heating Sizing Factor
  1.15;                                   !- Cooling Sizing Factor

OS:SizingPeriod:DesignDay,
  {a875b335-4c34-4bf6-b7e7-0651822f4e51}, !- Handle
  New York Laguardia Arpt Ann Htg 99.6% Condns DB, !- Name
  -10.8,                                  !- Maximum Dry-Bulb Temperature {C}
  0,                                      !- Daily Dry-Bulb Temperature Range {deltaC}
  -10.8,                                  !- Humidity Indicating Conditions at Maximum Dry-Bulb
  101289,                                 !- Barometric Pressure {Pa}
  7.5,                                    !- Wind Speed {m/s}
  320,                                    !- Wind Direction {deg}
  0,                                      !- Sky Clearness
  0,                                      !- Rain Indicator
  0,                                      !- Snow Indicator
  21,                                     !- Day of Month
  1,                                      !- Month
  WinterDesignDay,                        !- Day Type
  0,                                      !- Daylight Saving Time Indicator
  Wetbulb,                                !- Humidity Indicating Type
  ,                                       !- Humidity Indicating Day Schedule Name
  DefaultMultipliers,                     !- Dry-Bulb Temperature Range Modifier Type
  ,                                       !- Dry-Bulb Temperature Range Modifier Schedule Name
  ASHRAEClearSky;                         !- Solar Model Indicator

OS:SizingPeriod:DesignDay,
  {330bb295-b0a8-4a17-9472-10c46ece77e4}, !- Handle
  New York Laguardia Arpt Ann Hum_n 99.6% Condns DP=>MCDB, !- Name
  -9.3,                                   !- Maximum Dry-Bulb Temperature {C}
  0,                                      !- Daily Dry-Bulb Temperature Range {deltaC}
  -20.1,                                  !- Humidity Indicating Conditions at Maximum Dry-Bulb
  101289,                                 !- Barometric Pressure {Pa}
  7.5,                                    !- Wind Speed {m/s}
  320,                                    !- Wind Direction {deg}
  0,                                      !- Sky Clearness
  0,                                      !- Rain Indicator
  0,                                      !- Snow Indicator
  21,                                     !- Day of Month
  1,                                      !- Month
  WinterDesignDay,                        !- Day Type
  0,                                      !- Daylight Saving Time Indicator
  Dewpoint,                               !- Humidity Indicating Type
  ,                                       !- Humidity Indicating Day Schedule Name
  DefaultMultipliers,                     !- Dry-Bulb Temperature Range Modifier Type
  ,                                       !- Dry-Bulb Temperature Range Modifier Schedule Name
  ASHRAEClearSky;                         !- Solar Model Indicator

OS:SizingPeriod:DesignDay,
  {439610d2-e553-485d-933a-2c01c51f6ba9}, !- Handle
  New York Laguardia Arpt Ann Htg Wind 99.6% Condns WS=>MCDB, !- Name
  0,                                      !- Maximum Dry-Bulb Temperature {C}
  0,                                      !- Daily Dry-Bulb Temperature Range {deltaC}
  0,                                      !- Humidity Indicating Conditions at Maximum Dry-Bulb
  101289,                                 !- Barometric Pressure {Pa}
  14.4,                                   !- Wind Speed {m/s}
  320,                                    !- Wind Direction {deg}
  0,                                      !- Sky Clearness
  0,                                      !- Rain Indicator
  0,                                      !- Snow Indicator
  21,                                     !- Day of Month
  1,                                      !- Month
  WinterDesignDay,                        !- Day Type
  0,                                      !- Daylight Saving Time Indicator
  Wetbulb,                                !- Humidity Indicating Type
  ,                                       !- Humidity Indicating Day Schedule Name
  DefaultMultipliers,                     !- Dry-Bulb Temperature Range Modifier Type
  ,                                       !- Dry-Bulb Temperature Range Modifier Schedule Name
  ASHRAEClearSky;                         !- Solar Model Indicator

OS:SizingPeriod:DesignDay,
  {95dd338f-60f9-48f6-a949-4ab83b7d440f}, !- Handle
  New York Laguardia Arpt Ann Clg .4% Condns DB=>MWB, !- Name
  33.5,                                   !- Maximum Dry-Bulb Temperature {C}
  7.7,                                    !- Daily Dry-Bulb Temperature Range {deltaC}
  23.5,                                   !- Humidity Indicating Conditions at Maximum Dry-Bulb
  101289,                                 !- Barometric Pressure {Pa}
  5.6,                                    !- Wind Speed {m/s}
  270,                                    !- Wind Direction {deg}
  0,                                      !- Sky Clearness
  0,                                      !- Rain Indicator
  0,                                      !- Snow Indicator
  21,                                     !- Day of Month
  7,                                      !- Month
  SummerDesignDay,                        !- Day Type
  0,                                      !- Daylight Saving Time Indicator
  Wetbulb,                                !- Humidity Indicating Type
  ,                                       !- Humidity Indicating Day Schedule Name
  DefaultMultipliers,                     !- Dry-Bulb Temperature Range Modifier Type
  ,                                       !- Dry-Bulb Temperature Range Modifier Schedule Name
  ASHRAETau,                              !- Solar Model Indicator
  ,                                       !- Beam Solar Day Schedule Name
  ,                                       !- Diffuse Solar Day Schedule Name
  0.532,                                  !- ASHRAE Taub {dimensionless}
  1.821;                                  !- ASHRAE Taud {dimensionless}

OS:SizingPeriod:DesignDay,
  {1cea911c-f20c-450c-be6a-af2ce63676f3}, !- Handle
  New York Laguardia Arpt Ann Clg .4% Condns Enth=>MDB, !- Name
  30.8,                                   !- Maximum Dry-Bulb Temperature {C}
  7.7,                                    !- Daily Dry-Bulb Temperature Range {deltaC}
  76200,                                  !- Humidity Indicating Conditions at Maximum Dry-Bulb
  101289,                                 !- Barometric Pressure {Pa}
  5.6,                                    !- Wind Speed {m/s}
  270,                                    !- Wind Direction {deg}
  0,                                      !- Sky Clearness
  0,                                      !- Rain Indicator
  0,                                      !- Snow Indicator
  21,                                     !- Day of Month
  7,                                      !- Month
  SummerDesignDay,                        !- Day Type
  0,                                      !- Daylight Saving Time Indicator
  Enthalpy,                               !- Humidity Indicating Type
  ,                                       !- Humidity Indicating Day Schedule Name
  DefaultMultipliers,                     !- Dry-Bulb Temperature Range Modifier Type
  ,                                       !- Dry-Bulb Temperature Range Modifier Schedule Name
  ASHRAETau,                              !- Solar Model Indicator
  ,                                       !- Beam Solar Day Schedule Name
  ,                                       !- Diffuse Solar Day Schedule Name
  0.532,                                  !- ASHRAE Taub {dimensionless}
  1.821;                                  !- ASHRAE Taud {dimensionless}

OS:SizingPeriod:DesignDay,
  {4790c9e6-c038-4846-93e7-8e7a4bedf60f}, !- Handle
  New York Laguardia Arpt Ann Clg .4% Condns WB=>MDB, !- Name
  30.7,                                   !- Maximum Dry-Bulb Temperature {C}
  7.7,                                    !- Daily Dry-Bulb Temperature Range {deltaC}
  25.1,                                   !- Humidity Indicating Conditions at Maximum Dry-Bulb
  101289,                                 !- Barometric Pressure {Pa}
  5.6,                                    !- Wind Speed {m/s}
  270,                                    !- Wind Direction {deg}
  0,                                      !- Sky Clearness
  0,                                      !- Rain Indicator
  0,                                      !- Snow Indicator
  21,                                     !- Day of Month
  7,                                      !- Month
  SummerDesignDay,                        !- Day Type
  0,                                      !- Daylight Saving Time Indicator
  Wetbulb,                                !- Humidity Indicating Type
  ,                                       !- Humidity Indicating Day Schedule Name
  DefaultMultipliers,                     !- Dry-Bulb Temperature Range Modifier Type
  ,                                       !- Dry-Bulb Temperature Range Modifier Schedule Name
  ASHRAETau,                              !- Solar Model Indicator
  ,                                       !- Beam Solar Day Schedule Name
  ,                                       !- Diffuse Solar Day Schedule Name
  0.532,                                  !- ASHRAE Taub {dimensionless}
  1.821;                                  !- ASHRAE Taud {dimensionless}

OS:SizingPeriod:DesignDay,
  {177c07b8-c68c-47e6-bb01-2e0c0d2b2a3e}, !- Handle
  New York Laguardia Arpt Ann Clg .4% Condns DP=>MDB, !- Name
  27.2,                                   !- Maximum Dry-Bulb Temperature {C}
  7.7,                                    !- Daily Dry-Bulb Temperature Range {deltaC}
  23.5,                                   !- Humidity Indicating Conditions at Maximum Dry-Bulb
  101289,                                 !- Barometric Pressure {Pa}
  5.6,                                    !- Wind Speed {m/s}
  270,                                    !- Wind Direction {deg}
  0,                                      !- Sky Clearness
  0,                                      !- Rain Indicator
  0,                                      !- Snow Indicator
  21,                                     !- Day of Month
  7,                                      !- Month
  SummerDesignDay,                        !- Day Type
  0,                                      !- Daylight Saving Time Indicator
  Dewpoint,                               !- Humidity Indicating Type
  ,                                       !- Humidity Indicating Day Schedule Name
  DefaultMultipliers,                     !- Dry-Bulb Temperature Range Modifier Type
  ,                                       !- Dry-Bulb Temperature Range Modifier Schedule Name
  ASHRAETau,                              !- Solar Model Indicator
  ,                                       !- Beam Solar Day Schedule Name
  ,                                       !- Diffuse Solar Day Schedule Name
  0.532,                                  !- ASHRAE Taub {dimensionless}
  1.821;                                  !- ASHRAE Taud {dimensionless}

OS:BuildingStory,
  {cd3c8f8d-8e5e-48a3-8b63-feabf0302930}, !- Handle
  Building Story 1,                       !- Name
  0,                                      !- Nominal Z Coordinate {m}
  ,                                       !- Nominal Floor to Floor Height {m}
  ,                                       !- Default Construction Set Name
  ,                                       !- Default Schedule Set Name
  {07e029cc-3923-4a35-a382-4c077addbf65}; !- Group Rendering Name

OS:BuildingStory,
  {de8eccb2-b80c-40b6-951b-1886eade3d21}, !- Handle
  Building Story 2,                       !- Name
  3,                                      !- Nominal Z Coordinate {m}
  ,                                       !- Nominal Floor to Floor Height {m}
  ,                                       !- Default Construction Set Name
  ,                                       !- Default Schedule Set Name
  {10344745-cd79-4ee0-bd36-69de54b1c1c8}; !- Group Rendering Name

OS:Material,
  {cee80eb5-72b5-4759-a7a9-9a26381b191f}, !- Handle
  F16 Acoustic tile,                      !- Name
  MediumSmooth,                           !- Roughness
  0.0191,                                 !- Thickness {m}
  0.06,                                   !- Conductivity {W/m-K}
  368,                                    !- Density {kg/m3}
  590.000000000002,                       !- Specific Heat {J/kg-K}
  0.9,                                    !- Thermal Absorptance
  0.3;                                    !- Solar Absorptance

OS:Material:AirGap,
  {612cfd8d-971c-4f83-a2c6-e23904e9e643}, !- Handle
  Material Air Gap 1,                     !- Name
  0.18;                                   !- Thermal Resistance {m2-K/W}

OS:Material,
  {44ae3a34-0629-4dbb-af59-6aa4f37f179d}, !- Handle
  M11 100mm lightweight concrete,         !- Name
  MediumRough,                            !- Roughness
  0.1016,                                 !- Thickness {m}
  0.53,                                   !- Conductivity {W/m-K}
  1280,                                   !- Density {kg/m3}
  840.000000000002,                       !- Specific Heat {J/kg-K}
  0.9,                                    !- Thermal Absorptance
  0.5;                                    !- Solar Absorptance

OS:Construction,
  {db8d59c1-c35b-49f9-91cd-40b14d90b57b}, !- Handle
  Interior Floor,                         !- Name
  {f3a73bf8-d895-4295-899c-7d4ac33d7351}, !- Surface Rendering Name
  {cee80eb5-72b5-4759-a7a9-9a26381b191f}, !- Layer 1
  {612cfd8d-971c-4f83-a2c6-e23904e9e643}, !- Layer 2
  {44ae3a34-0629-4dbb-af59-6aa4f37f179d}; !- Layer 3

OS:Construction,
  {603c9c7a-0527-4d61-ac4b-1c50b293b1c9}, !- Handle
  Interior Ceiling,                       !- Name
  {7de1f8a6-8726-455e-89a9-04f24c871dce}, !- Surface Rendering Name
  {44ae3a34-0629-4dbb-af59-6aa4f37f179d}, !- Layer 1
  {612cfd8d-971c-4f83-a2c6-e23904e9e643}, !- Layer 2
  {cee80eb5-72b5-4759-a7a9-9a26381b191f}; !- Layer 3

OS:WindowMaterial:Glazing,
  {648562f8-be97-435f-b570-696da388664e}, !- Handle
  Clear 3mm,                              !- Name
  SpectralAverage,                        !- Optical Data Type
  ,                                       !- Window Glass Spectral Data Set Name
  0.00299999999999999,                    !- Thickness {m}
  0.837,                                  !- Solar Transmittance at Normal Incidence
  0.075,                                  !- Front Side Solar Reflectance at Normal Incidence
  0,                                      !- Back Side Solar Reflectance at Normal Incidence
  0.898,                                  !- Visible Transmittance at Normal Incidence
  0.081,                                  !- Front Side Visible Reflectance at Normal Incidence
  0,                                      !- Back Side Visible Reflectance at Normal Incidence
  0,                                      !- Infrared Transmittance at Normal Incidence
  0.84,                                   !- Front Side Infrared Hemispherical Emissivity
  0.84,                                   !- Back Side Infrared Hemispherical Emissivity
  0.9,                                    !- Conductivity {W/m-K}
  1;                                      !- Dirt Correction Factor for Solar and Visible Transmittance

OS:WindowMaterial:Gas,
  {c6be4efc-9c3a-4e0e-ae1d-9e0bd1a08f3d}, !- Handle
  Air 13mm,                               !- Name
  Air,                                    !- Gas Type
  0.0127;                                 !- Thickness {m}

OS:Construction,
  {b3d9c97e-37cc-4f14-b2a6-4a54f246e2fd}, !- Handle
  Exterior Window,                        !- Name
  {bf78ddb3-f1cf-48ce-a89d-3014d882eb8f}, !- Surface Rendering Name
  {648562f8-be97-435f-b570-696da388664e}, !- Layer 1
  {c6be4efc-9c3a-4e0e-ae1d-9e0bd1a08f3d}, !- Layer 2
  {648562f8-be97-435f-b570-696da388664e}; !- Layer 3

OS:Material,
  {d6128b8d-2fe1-4974-9259-488346b6ed75}, !- Handle
  G01a 19mm gypsum board,                 !- Name
  MediumSmooth,                           !- Roughness
  0.019,                                  !- Thickness {m}
  0.16,                                   !- Conductivity {W/m-K}
  800,                                    !- Density {kg/m3}
  1090,                                   !- Specific Heat {J/kg-K}
  0.9,                                    !- Thermal Absorptance
  0.4;                                    !- Solar Absorptance

OS:Material:AirGap,
  {376d0e1e-a7c2-4a73-85d4-24087ac774e0}, !- Handle
  Material Air Gap 2,                     !- Name
  0.15;                                   !- Thermal Resistance {m2-K/W}

OS:Construction,
  {dd67694b-9b75-4996-9477-1d53661f0753}, !- Handle
  Interior Wall,                          !- Name
  {c16dce9f-7350-4c73-8680-e015e5208abc}, !- Surface Rendering Name
  {d6128b8d-2fe1-4974-9259-488346b6ed75}, !- Layer 1
  {376d0e1e-a7c2-4a73-85d4-24087ac774e0}, !- Layer 2
  {d6128b8d-2fe1-4974-9259-488346b6ed75}; !- Layer 3

OS:Material,
  {222a9223-2f58-495b-8049-dfea62743b1e}, !- Handle
  M01 100mm brick,                        !- Name
  MediumRough,                            !- Roughness
  0.1016,                                 !- Thickness {m}
  0.89,                                   !- Conductivity {W/m-K}
  1920,                                   !- Density {kg/m3}
  790,                                    !- Specific Heat {J/kg-K}
  0.9,                                    !- Thermal Absorptance
  0.7;                                    !- Solar Absorptance

OS:Material,
  {447fa3f1-941d-4359-ad37-73e5671a1ba2}, !- Handle
  M15 200mm heavyweight concrete,         !- Name
  MediumRough,                            !- Roughness
  0.2032,                                 !- Thickness {m}
  1.95,                                   !- Conductivity {W/m-K}
  2240,                                   !- Density {kg/m3}
  900,                                    !- Specific Heat {J/kg-K}
  0.9,                                    !- Thermal Absorptance
  0.7;                                    !- Solar Absorptance

OS:Material,
  {8a293270-6041-4bd7-8cfc-722cd2574128}, !- Handle
  I02 50mm insulation board,              !- Name
  MediumRough,                            !- Roughness
  0.0508,                                 !- Thickness {m}
  0.03,                                   !- Conductivity {W/m-K}
  43,                                     !- Density {kg/m3}
  1210,                                   !- Specific Heat {J/kg-K}
  0.9,                                    !- Thermal Absorptance
  0.7;                                    !- Solar Absorptance

OS:Construction,
  {e19eb75c-f92f-439d-a2f1-b4227f1afec1}, !- Handle
  Exterior Wall,                          !- Name
  {e80a1d57-d5d9-48e5-81d2-b69d252b6040}, !- Surface Rendering Name
  {222a9223-2f58-495b-8049-dfea62743b1e}, !- Layer 1
  {447fa3f1-941d-4359-ad37-73e5671a1ba2}, !- Layer 2
  {8a293270-6041-4bd7-8cfc-722cd2574128}, !- Layer 3
  {376d0e1e-a7c2-4a73-85d4-24087ac774e0}, !- Layer 4
  {d6128b8d-2fe1-4974-9259-488346b6ed75}; !- Layer 5

OS:Construction,
  {64e2fa3e-42d7-40c4-a1d9-c5281ed43da1}, !- Handle
  Exterior Roof,                          !- Name
  {9eee81fc-085f-4f39-bf44-9e5b32b904e5}, !- Surface Rendering Name
  {44ae3a34-0629-4dbb-af59-6aa4f37f179d}, !- Layer 1
  {612cfd8d-971c-4f83-a2c6-e23904e9e643}, !- Layer 2
  {cee80eb5-72b5-4759-a7a9-9a26381b191f}; !- Layer 3

OS:DefaultConstructionSet,
  {96662534-b012-47a3-8fca-b2c3102082ef}, !- Handle
  Default Construction Set 1,             !- Name
  {bb569f62-5b60-4da4-8ebd-ebfb08908e00}, !- Default Exterior Surface Constructions Name
  {6acb82e6-b294-4cff-a22d-d14ebb8666a8}, !- Default Interior Surface Constructions Name
  {749d67c4-efe1-4750-b00f-fc00072bf0f9}, !- Default Ground Contact Surface Constructions Name
  {64a09ba9-39d4-4ff0-872b-a7f7896a24fa}, !- Default Exterior SubSurface Constructions Name
  {5049da82-c44c-4210-8f64-75734fbcfed6}, !- Default Interior SubSurface Constructions Name
  ,                                       !- Interior Partition Construction Name
  ,                                       !- Space Shading Construction Name
  ,                                       !- Building Shading Construction Name
  ,                                       !- Site Shading Construction Name
  ;                                       !- Adiabatic Surface Construction Name

OS:DefaultSurfaceConstructions,
  {bb569f62-5b60-4da4-8ebd-ebfb08908e00}, !- Handle
  Default Surface Constructions 1,        !- Name
  ,                                       !- Floor Construction Name
  {e19eb75c-f92f-439d-a2f1-b4227f1afec1}, !- Wall Construction Name
  {64e2fa3e-42d7-40c4-a1d9-c5281ed43da1}; !- Roof Ceiling Construction Name

OS:DefaultSurfaceConstructions,
  {6acb82e6-b294-4cff-a22d-d14ebb8666a8}, !- Handle
  Default Surface Constructions 2,        !- Name
  {db8d59c1-c35b-49f9-91cd-40b14d90b57b}, !- Floor Construction Name
  {dd67694b-9b75-4996-9477-1d53661f0753}, !- Wall Construction Name
  {603c9c7a-0527-4d61-ac4b-1c50b293b1c9}; !- Roof Ceiling Construction Name

OS:DefaultSurfaceConstructions,
  {749d67c4-efe1-4750-b00f-fc00072bf0f9}, !- Handle
  Default Surface Constructions 3,        !- Name
  {db8d59c1-c35b-49f9-91cd-40b14d90b57b}, !- Floor Construction Name
  ,                                       !- Wall Construction Name
  ;                                       !- Roof Ceiling Construction Name

OS:DefaultSubSurfaceConstructions,
  {64a09ba9-39d4-4ff0-872b-a7f7896a24fa}, !- Handle
  Default Sub Surface Constructions 1,    !- Name
  {b3d9c97e-37cc-4f14-b2a6-4a54f246e2fd}, !- Fixed Window Construction Name
  ,                                       !- Operable Window Construction Name
  ,                                       !- Door Construction Name
  ,                                       !- Glass Door Construction Name
  ,                                       !- Overhead Door Construction Name
  ,                                       !- Skylight Construction Name
  ,                                       !- Tubular Daylight Dome Construction Name
  ;                                       !- Tubular Daylight Diffuser Construction Name

OS:DefaultSubSurfaceConstructions,
  {5049da82-c44c-4210-8f64-75734fbcfed6}, !- Handle
  Default Sub Surface Constructions 2,    !- Name
  ,                                       !- Fixed Window Construction Name
  ,                                       !- Operable Window Construction Name
  ,                                       !- Door Construction Name
  ,                                       !- Glass Door Construction Name
  ,                                       !- Overhead Door Construction Name
  ,                                       !- Skylight Construction Name
  ,                                       !- Tubular Daylight Dome Construction Name
  ;                                       !- Tubular Daylight Diffuser Construction Name

OS:Space,
  {dadcfee4-bbba-4c02-9e51-353fb5ff1d85}, !- Handle
  zone_0_space,                           !- Name
  {b8c39b7b-7292-4b67-b991-14f7869c0b61}, !- Space Type Name
  {96662534-b012-47a3-8fca-b2c3102082ef}, !- Default Construction Set Name
  ,                                       !- Default Schedule Set Name
  ,                                       !- Direction of Relative North {deg}
  ,                                       !- X Origin {m}
  ,                                       !- Y Origin {m}
  ,                                       !- Z Origin {m}
  {cd3c8f8d-8e5e-48a3-8b63-feabf0302930}, !- Building Story Name
  {ca3cc766-80c6-4f7a-b76e-978c5974e272}; !- Thermal Zone Name

OS:SpaceType,
  {b8c39b7b-7292-4b67-b991-14f7869c0b61}, !- Handle
  Office:OpenOffice:zone_0,               !- Name
  ,                                       !- Default Construction Set Name
  {e817ac4b-8c9f-4aad-87c8-9a982507ab3d}, !- Default Schedule Set Name
  {eff2016d-2af9-436f-b830-65448d2cefb5}, !- Group Rendering Name
  {fb54d3d7-d7ec-40e1-adb1-969f305d3b0f}; !- Design Specification Outdoor Air Object Name

OS:DefaultScheduleSet,
  {e817ac4b-8c9f-4aad-87c8-9a982507ab3d}, !- Handle
  zone_0_DefaultScheduleSet,              !- Name
  {eb9bed3b-0684-4984-b979-d51494641e46}, !- Hours of Operation Schedule Name
  ,                                       !- Number of People Schedule Name
  {9d269418-a14b-4bc9-b395-4ece6b9f875a}, !- People Activity Level Schedule Name
  {c7d9b741-e48f-4846-befe-51c114f9eb84}, !- Lighting Schedule Name
  {23678649-a0fa-48fe-b8e1-491075b3e5c5}, !- Electric Equipment Schedule Name
  ,                                       !- Gas Equipment Schedule Name
  ,                                       !- Hot Water Equipment Schedule Name
  {ae194696-7564-474d-985e-9103019e958c}, !- Infiltration Schedule Name
  ,                                       !- Steam Equipment Schedule Name
  ;                                       !- Other Equipment Schedule Name

OS:ScheduleTypeLimits,
  {09be21c0-6314-41a1-bd3f-6ec15089178b}, !- Handle
  Schedule Type Limits 1,                 !- Name
  0,                                      !- Lower Limit Value
  1,                                      !- Upper Limit Value
  CONTINUOUS;                             !- Numeric Type

OS:Schedule:Year,
  {ae194696-7564-474d-985e-9103019e958c}, !- Handle