OS:Version,
  {8189f50b-1055-4d2b-b00c-e37e7fc3e90c}, !- Handle
  2.4.0;                                  !- Version Identifier